MODEL        1
REMARK THIS MODEL IS IDENTICAL TO THE INPUT LIGAND AND NOT FROM DOCKING
REMARK 921   NORMALIZED FREE ENERGY PREDICTED BY IDOCK:  -10.82 KCAL/MOL
REMARK 922        TOTAL FREE ENERGY PREDICTED BY IDOCK:  -16.84 KCAL/MOL
REMARK 923 INTER-LIGAND FREE ENERGY PREDICTED BY IDOCK:  -15.89 KCAL/MOL
REMARK 924 INTRA-LIGAND FREE ENERGY PREDICTED BY IDOCK:   -0.95 KCAL/MOL
REMARK 927      BINDING AFFINITY PREDICTED BY RF-SCORE:    0.00 PKD
ROOT
HETATM    1  CAW 9JU A1201       8.372   2.466 -58.835  1.00  0.00    -0.466 C  
HETATM    2  CAX 9JU A1201       8.612   3.656 -59.851  1.00  0.00    -0.512 C  
HETATM    3  CBE 9JU A1201       8.191   5.032 -59.186  1.00  0.00    -0.692 C  
HETATM    4  CBC 9JU A1201       9.035   5.289 -57.885  1.00  0.00    -0.687 C  
HETATM    5  CBB 9JU A1201      10.560   5.335 -58.268  1.00  0.00    -0.567 C  
HETATM    6  CAZ 9JU A1201      10.995   3.975 -58.930  1.00  0.00    -0.471 C  
HETATM    7  CAY 9JU A1201      10.138   3.713 -60.222  1.00  0.00    -0.718 C  
HETATM    8  CBA 9JU A1201      10.745   2.800 -57.912  1.00  0.00    -0.604 C  
HETATM    9  CAV 9JU A1201       9.214   2.718 -57.517  1.00  0.00    -0.378 C  
HETATM   10  CBD 9JU A1201       8.787   4.111 -56.859  1.00  0.00    -0.586 C  
ENDROOT
BRANCH   9  11
HETATM   11  NAT 9JU A1201       9.094   1.582 -56.563  1.00  0.00    -0.319 N  
HETATM   12  CAM 9JU A1201       8.007   1.148 -55.865  1.00  0.00    -0.282 C  
HETATM   13  HAT 9JU A1201       9.951   1.051 -56.409  1.00  0.00     0.000 HD 
HETATM   14  OAU 9JU A1201       6.882   1.646 -55.968  1.00  0.00    -0.256 OA 
BRANCH  12  15
HETATM   15  CAJ 9JU A1201       8.263   0.075 -55.070  1.00  0.00    -0.320 A  
HETATM   16  CAK 9JU A1201       7.503  -0.525 -54.143  1.00  0.00    -0.494 A  
HETATM   17  CAG 9JU A1201       8.234  -1.534 -53.669  1.00  0.00    -0.332 A  
HETATM   18  CAL 9JU A1201       6.074  -0.168 -53.686  1.00  0.00    -0.576 C  
HETATM   19  NAI 9JU A1201       9.425  -0.595 -55.104  1.00  0.00    -0.273 NA 
HETATM   20  NAH 9JU A1201       9.414  -1.536 -54.315  1.00  0.00    -0.321 NA 
BRANCH  17  21
HETATM   21  CAE 9JU A1201       7.862  -2.396 -52.704  1.00  0.00    -0.470 A  
HETATM   22  CAA 9JU A1201       6.965  -4.566 -52.049  1.00  0.00    -0.570 A  
HETATM   23  CAD 9JU A1201       8.009  -2.059 -51.346  1.00  0.00    -0.664 A  
HETATM   24  CAF 9JU A1201       7.334  -3.651 -53.045  1.00  0.00    -0.417 A  
HETATM   25  CAC 9JU A1201       7.627  -2.965 -50.350  1.00  0.00    -0.923 A  
HETATM   26  CAB 9JU A1201       7.108  -4.217 -50.703  1.00  0.00    -0.753 A  
ENDBRANCH  17  21
BRANCH  20  27
HETATM   27  CAN 9JU A1201      10.645  -2.398 -54.172  1.00  0.00    -0.314 C  
BRANCH  27  28
HETATM   28  CAO 9JU A1201      10.472  -3.801 -54.767  1.00  0.00    -0.659 C  
BRANCH  28  29
HETATM   29  CAP 9JU A1201      10.883  -3.804 -56.237  1.00  0.00    -0.689 C  
BRANCH  29  30
HETATM   30  CAQ 9JU A1201      11.560  -5.134 -56.578  1.00  0.00    -0.686 C  
BRANCH  30  31
HETATM   31  CAR 9JU A1201      12.302  -5.005 -57.913  1.00  0.00    -0.440 C  
HETATM   32  OAS 9JU A1201      13.585  -4.397 -57.705  1.00  0.00    -0.449 OA 
HETATM   33  HAS 9JU A1201      14.045  -4.317 -58.532  1.00  0.00     0.000 HD 
ENDBRANCH  30  31
ENDBRANCH  29  30
ENDBRANCH  28  29
ENDBRANCH  27  28
ENDBRANCH  20  27
ENDBRANCH  12  15
ENDBRANCH   9  11
TORSDOF 8
ENDMDL
