REMARK  4 active torsions:
REMARK  status: ('A' for Active; 'I' for Inactive)
REMARK    1  A    between atoms: C03_3  and  C04_13
REMARK    2  A    between atoms: C04_13  and  C05_14
REMARK    3  A    between atoms: C05_14  and  N06_15
REMARK    4  A    between atoms: C09_16  and  C12_21
ROOT
HETATM    1  C01 8NU A3001      10.875   1.419  64.653  1.00  0.00     0.066 C
HETATM    2  C02 8NU A3001      10.080   0.261  63.799  1.00  0.00     0.048 C
HETATM    3  C03 8NU A3001      10.374   0.003  62.501  1.00  0.00     0.034 C
HETATM    4  C22 8NU A3001       9.625  -1.097  61.699  1.00  0.00     0.237 C
HETATM    5  C28 8NU A3001       7.148  -2.341  64.561  1.00  0.00     0.068 C
HETATM    6  N24 8NU A3001       8.535  -1.862  62.455  1.00  0.00    -0.198 N
HETATM    7  C27 8NU A3001       6.258  -3.328  63.779  1.00  0.00     0.008 C
HETATM    8  O23 8NU A3001       9.841  -1.383  60.528  1.00  0.00    -0.274 OA
HETATM    9  C25 8NU A3001       7.681  -3.012  61.764  1.00  0.00     0.100 C
HETATM   10  N30 8NU A3001       9.017  -0.518  64.459  1.00  0.00    -0.244 NA
HETATM   11  C26 8NU A3001       7.073  -4.050  62.731  1.00  0.00     0.017 C
HETATM   12  C29 8NU A3001       8.346  -1.460  63.819  1.00  0.00     0.093 C
ENDROOT
BRANCH   3  13
HETATM   13  C04 8NU A3001      11.470   0.727  61.658  1.00  0.00     0.057 C
BRANCH  13  14
HETATM   14  C05 8NU A3001      12.830   0.068  61.846  1.00  0.00     0.089 C
BRANCH  14  15
HETATM   15  N06 8NU A3001      13.833   0.656  60.893  1.00  0.00    -0.302 NA
HETATM   16  C09 8NU A3001      16.083  -0.311  59.137  1.00  0.00     0.043 C
HETATM   17  C08 8NU A3001      16.322   0.413  60.488  1.00  0.00     0.025 C
HETATM   18  C11 8NU A3001      13.560   0.020  59.563  1.00  0.00     0.085 C
HETATM   19  C07 8NU A3001      15.146   0.265  61.467  1.00  0.00     0.085 C
HETATM   20  C10 8NU A3001      14.715   0.102  58.567  1.00  0.00     0.025 C
BRANCH  16  21
HETATM   21  C12 8NU A3001      17.141  -0.071  58.039  1.00  0.00     0.082 A
HETATM   22  C16 8NU A3001      18.510  -0.680  57.963  1.00  0.00     0.031 A
HETATM   23  C15 8NU A3001      19.100  -0.151  56.794  1.00  0.00     0.120 A
HETATM   24  O14 8NU A3001      18.146   0.709  56.222  1.00  0.00    -0.212 OA
HETATM   25  C21 8NU A3001      20.431  -0.505  56.377  1.00  0.00     0.074 A
HETATM   26  N13 8NU A3001      17.018   0.735  56.974  1.00  0.00    -0.131 NA
HETATM   27  C19 8NU A3001      21.161  -1.415  57.177  1.00  0.00     0.126 A
HETATM   28  C18 8NU A3001      20.583  -1.964  58.373  1.00  0.00     0.039 A
HETATM   29  F20 8NU A3001      22.384  -1.780  56.847  1.00  0.00    -0.205 F
HETATM   30  C17 8NU A3001      19.285  -1.590  58.742  1.00  0.00     0.015 A
ENDBRANCH  16  21
ENDBRANCH  14  15
ENDBRANCH  13  14
ENDBRANCH   3  13
TORSDOF 4
