REMARK 14 active torsions:
REMARK  status: ('A' for Active; 'I' for Inactive)
REMARK    1  A    between atoms: C1_1  and  C2_3
REMARK    2  A    between atoms: N_5  and  C3_7
REMARK    3  A    between atoms: C3_7  and  C4_8
REMARK    4  A    between atoms: C4_8  and  N1_9
REMARK    5  A    between atoms: N1_9  and  C5_11
REMARK    6  A    between atoms: C5_11  and  N2_13
REMARK    7  A    between atoms: N4_16  and  C7_21
REMARK    8  A    between atoms: C7_21  and  C8_22
REMARK    9  A    between atoms: C8_22  and  C9_23
REMARK   10  A    between atoms: C9_23  and  C10_24
REMARK   11  A    between atoms: C10_24  and  N5_25
REMARK   12  A    between atoms: C10_24  and  C25_42
REMARK   13  A    between atoms: N6_44  and  C26_46
REMARK   14  A    between atoms: C26_46  and  C27_47
ROOT
HETATM    1  C1  9AO A1301     -48.590 -18.464  76.728  1.00  0.00     0.089 C
HETATM    2  C   9AO A1301     -48.028 -18.181  75.334  1.00  0.00     0.013 C
ENDROOT
BRANCH   1   3
HETATM    3  C2  9AO A1301     -50.071 -18.929  76.713  1.00  0.00     0.201 C
HETATM    4  O   9AO A1301     -50.567 -19.396  77.750  1.00  0.00    -0.280 OA
HETATM    5  N   9AO A1301     -50.769 -18.757  75.552  1.00  0.00    -0.255 N
HETATM    6  H   9AO A1301     -50.316 -18.308  74.756  1.00  0.00     0.130 HD
BRANCH   5   7
HETATM    7  C3  9AO A1301     -52.170 -19.211  75.429  1.00  0.00     0.131 C
BRANCH   7   8
HETATM    8  C4  9AO A1301     -52.809 -18.983  74.050  1.00  0.00     0.262 C
BRANCH   8   9
HETATM    9  N1  9AO A1301     -52.008 -19.308  72.842  1.00  0.00    -0.446 N
HETATM   10  H1  9AO A1301     -52.292 -18.787  72.013  1.00  0.00     0.315 HD
BRANCH   9  11
HETATM   11  C5  9AO A1301     -50.973 -20.159  72.620  1.00  0.00     0.532 C
HETATM   12  O1  9AO A1301     -50.353 -20.779  73.493  1.00  0.00    -0.201 OA
BRANCH  11  13
HETATM   13  N2  9AO A1301     -50.607 -20.248  71.324  1.00  0.00    -0.351 N
HETATM   14  H2  9AO A1301     -51.181 -19.691  70.691  1.00  0.00     0.332 HD
HETATM   15  C6  9AO A1301     -49.620 -20.939  70.711  1.00  0.00     0.518 C
HETATM   16  N4  9AO A1301     -48.723 -21.744  71.358  1.00  0.00    -0.444 NA
HETATM   17  N3  9AO A1301     -49.565 -20.796  69.373  1.00  0.00    -0.457 NA
HETATM   18  H32 9AO A1301     -50.221 -20.208  68.859  1.00  0.00     0.311 HD
HETATM   19  H4  9AO A1301     -48.877 -21.938  72.348  1.00  0.00     0.315 HD
HETATM   20  H31 9AO A1301     -48.820 -21.317  68.910  1.00  0.00     0.311 HD
BRANCH  16  21
HETATM   21  C7  9AO A1301     -47.533 -22.354  70.700  1.00  0.00     0.247 C
BRANCH  21  22
HETATM   22  C8  9AO A1301     -46.493 -21.242  70.478  1.00  0.00     0.044 C
BRANCH  22  23
HETATM   23  C9  9AO A1301     -45.191 -21.684  69.766  1.00  0.00     0.031 C
BRANCH  23  24
HETATM   24  C10 9AO A1301     -44.121 -20.552  69.866  1.00  0.00     0.144 C
BRANCH  24  25
HETATM   25  N5  9AO A1301     -44.656 -19.332  69.186  1.00  0.00    -0.246 N
HETATM   26  C14 9AO A1301     -43.211 -16.846  66.776  1.00  0.00     0.005 A
HETATM   27  H5  9AO A1301     -45.059 -18.603  69.775  1.00  0.00     0.131 HD
HETATM   28  C11 9AO A1301     -44.647 -19.120  67.845  1.00  0.00     0.213 C
HETATM   29  C20 9AO A1301     -46.815 -18.982  65.625  1.00  0.00     0.005 A
HETATM   30  C21 9AO A1301     -48.065 -19.407  65.156  1.00  0.00     0.000 A
HETATM   31  O2  9AO A1301     -44.161 -19.901  67.027  1.00  0.00    -0.279 OA
HETATM   32  C15 9AO A1301     -42.413 -15.977  66.017  1.00  0.00     0.000 A
HETATM   33  C22 9AO A1301     -49.200 -19.126  65.912  1.00  0.00     0.000 A
HETATM   34  C12 9AO A1301     -45.388 -17.851  67.349  1.00  0.00     0.131 C
HETATM   35  C16 9AO A1301     -42.966 -15.196  65.001  1.00  0.00     0.000 A
HETATM   36  C19 9AO A1301     -46.667 -18.254  66.832  1.00  0.00    -0.032 A
HETATM   37  C13 9AO A1301     -44.585 -16.981  66.522  1.00  0.00    -0.032 A
HETATM   38  C18 9AO A1301     -45.135 -16.154  65.517  1.00  0.00     0.005 A
HETATM   39  C17 9AO A1301     -44.332 -15.302  64.745  1.00  0.00     0.000 A
HETATM   40  C24 9AO A1301     -47.819 -18.012  67.595  1.00  0.00     0.005 A
HETATM   41  C23 9AO A1301     -49.070 -18.442  67.129  1.00  0.00     0.000 A
ENDBRANCH  24  25
BRANCH  24  42
HETATM   42  C25 9AO A1301     -43.822 -20.315  71.381  1.00  0.00     0.218 C
HETATM   43  O3  9AO A1301     -44.160 -19.268  71.946  1.00  0.00    -0.278 OA
HETATM   44  N6  9AO A1301     -43.279 -21.379  72.025  1.00  0.00    -0.253 N
HETATM   45  H6  9AO A1301     -42.935 -22.154  71.458  1.00  0.00     0.131 HD
BRANCH  44  46
HETATM   46  C26 9AO A1301     -43.154 -21.489  73.485  1.00  0.00     0.124 C
BRANCH  46  47
HETATM   47  C27 9AO A1301     -44.402 -21.965  73.965  1.00  0.00    -0.033 A
HETATM   48  C29 9AO A1301     -46.074 -23.735  74.169  1.00  0.00     0.033 A
HETATM   49  O4  9AO A1301     -48.107 -23.332  75.362  1.00  0.00    -0.360 OA
HETATM   50  C30 9AO A1301     -46.894 -22.873  74.913  1.00  0.00     0.073 A
HETATM   51  C32 9AO A1301     -45.231 -21.101  74.710  1.00  0.00     0.007 A
HETATM   52  H4  9AO A1301     -48.388 -24.223  75.191  1.00  0.00     0.217 HD
HETATM   53  C28 9AO A1301     -44.842 -23.278  73.671  1.00  0.00     0.007 A
HETATM   54  C31 9AO A1301     -46.477 -21.550  75.167  1.00  0.00     0.033 A
ENDBRANCH  46  47
ENDBRANCH  44  46
ENDBRANCH  24  42
ENDBRANCH  23  24
ENDBRANCH  22  23
ENDBRANCH  21  22
ENDBRANCH  16  21
ENDBRANCH  11  13
ENDBRANCH   9  11
ENDBRANCH   8   9
ENDBRANCH   7   8
ENDBRANCH   5   7
ENDBRANCH   1   3
TORSDOF 14
