REMARK  5 active torsions:
REMARK  status: ('A' for Active; 'I' for Inactive)
REMARK    1  A    between atoms: C09_2  and  N14_8
REMARK    2  A    between atoms: N14_8  and  C08_10
REMARK    3  A    between atoms: C13_3  and  C17_19
REMARK    4  A    between atoms: C08_10  and  C07_11
REMARK    5  A    between atoms: C02_16  and  O16_17
ROOT
HETATM    1  C10 GBK A1501       4.628  18.565 -57.102  1.00  0.00     0.022 C
HETATM    2  C09 GBK A1501       3.782  19.332 -56.097  1.00  0.00     0.075 C
HETATM    3  C13 GBK A1501       2.999  20.442 -56.777  1.00  0.00     0.101 C
HETATM    4  H15 GBK A1501       1.497  20.589 -58.173  1.00  0.00     0.123 HD
HETATM    5  C12 GBK A1501       2.518  18.828 -58.536  1.00  0.00     0.081 C
HETATM    6  C11 GBK A1501       4.062  18.686 -58.518  1.00  0.00     0.017 C
HETATM    7  N15 GBK A1501       1.981  19.864 -57.643  1.00  0.00    -0.308 NA
ENDROOT
BRANCH   2   8
HETATM    8  N14 GBK A1501       2.833  18.409 -55.487  1.00  0.00    -0.307 NA
HETATM    9  H14 GBK A1501       2.118  18.893 -54.944  1.00  0.00     0.123 HD
BRANCH   8  10
HETATM   10  C08 GBK A1501       3.550  17.436 -54.700  1.00  0.00     0.119 C
BRANCH  10  11
HETATM   11  C07 GBK A1501       3.570  17.997 -53.289  1.00  0.00    -0.004 A
HETATM   12  C06 GBK A1501       2.516  18.788 -52.864  1.00  0.00     0.007 A
HETATM   13  C04 GBK A1501       3.570  19.041 -50.735  1.00  0.00     0.003 A
HETATM   14  C03 GBK A1501       4.626  18.251 -51.162  1.00  0.00     0.033 A
HETATM   15  C05 GBK A1501       2.509  19.311 -51.584  1.00  0.00     0.000 A
HETATM   16  C02 GBK A1501       4.629  17.730 -52.444  1.00  0.00     0.080 A
BRANCH  16  17
HETATM   17  O16 GBK A1501       5.686  16.932 -52.892  1.00  0.00    -0.348 OA
HETATM   18  C01 GBK A1501       6.742  16.805 -51.986  1.00  0.00     0.202 C
ENDBRANCH  16  17
ENDBRANCH  10  11
ENDBRANCH   8  10
ENDBRANCH   2   8
BRANCH   3  19
HETATM   19  C17 GBK A1501       2.350  21.295 -55.683  1.00  0.00    -0.029 A
HETATM   20  C18 GBK A1501       3.052  22.360 -55.140  1.00  0.00     0.005 A
HETATM   21  C22 GBK A1501       1.071  21.002 -55.229  1.00  0.00     0.005 A
HETATM   22  C19 GBK A1501       2.475  23.135 -54.148  1.00  0.00     0.000 A
HETATM   23  C21 GBK A1501       0.494  21.779 -54.237  1.00  0.00     0.000 A
HETATM   24  C20 GBK A1501       1.196  22.845 -53.697  1.00  0.00     0.000 A
ENDBRANCH   3  19
TORSDOF 5
