REMARK  4 active torsions:
REMARK  status: ('A' for Active; 'I' for Inactive)
REMARK    1  A    between atoms: C1_4  and  O7_7
REMARK    2  A    between atoms: C6_6  and  N33_9
REMARK    3  A    between atoms: N33_9  and  C23_11
REMARK    4  A    between atoms: C21_14  and  C24_19
ROOT
HETATM    1  C4  F7N A1102      13.816 -14.543 -15.239  1.00  0.00     0.161 C
HETATM    2  O3  F7N A1102      13.922 -15.972 -15.204  1.00  0.00    -0.377 OA
HETATM    3  C2  F7N A1102      12.647 -16.599 -15.420  1.00  0.00     0.192 C
HETATM    4  C1  F7N A1102      11.694 -16.222 -14.309  1.00  0.00     0.160 C
HETATM    5  C5  F7N A1102      12.872 -14.032 -14.178  1.00  0.00     0.049 C
HETATM    6  C6  F7N A1102      11.513 -14.709 -14.279  1.00  0.00     0.087 C
ENDROOT
BRANCH   4   7
HETATM    7  O7  F7N A1102      12.246 -16.620 -13.052  1.00  0.00    -0.376 OA
HETATM    8  C8  F7N A1102      11.917 -17.939 -12.637  1.00  0.00     0.194 C
ENDBRANCH   4   7
BRANCH   6   9
HETATM    9  N33 F7N A1102      10.692 -14.259 -13.102  1.00  0.00    -0.308 NA
HETATM   10  H33 F7N A1102      11.077 -13.622 -12.405  1.00  0.00     0.123 HD
BRANCH   9  11
HETATM   11  C23 F7N A1102       9.286 -14.779 -12.986  1.00  0.00     0.055 C
HETATM   12  C19 F7N A1102       8.432 -14.460 -14.208  1.00  0.00     0.020 C
HETATM   13  C20 F7N A1102       7.114 -14.925 -13.570  1.00  0.00     0.017 C
HETATM   14  C21 F7N A1102       7.040 -14.178 -12.219  1.00  0.00     0.048 C
HETATM   15  C25 F7N A1102       6.103 -14.927 -11.166  1.00  0.00    -0.002 C
HETATM   16  C26 F7N A1102       6.492 -16.389 -10.920  1.00  0.00     0.008 C
HETATM   17  C22 F7N A1102       8.533 -14.151 -11.824  1.00  0.00     0.034 C
HETATM   18  C27 F7N A1102       4.621 -14.863 -11.536  1.00  0.00     0.008 C
BRANCH  14  19
HETATM   19  C24 F7N A1102       6.475 -12.752 -12.400  1.00  0.00     0.210 C
HETATM   20  O28 F7N A1102       6.033 -12.439 -13.492  1.00  0.00    -0.279 OA
HETATM   21  N9  F7N A1102       6.485 -11.834 -11.404  1.00  0.00    -0.239 N
HETATM   22  C10 F7N A1102       6.959 -11.925 -10.014  1.00  0.00     0.099 C
HETATM   23  C11 F7N A1102       5.787 -11.874  -9.053  1.00  0.00     0.071 C
HETATM   24  C14 F7N A1102       4.938 -10.668  -9.351  1.00  0.00     0.047 A
HETATM   25  C13 F7N A1102       5.024 -10.015 -10.607  1.00  0.00    -0.011 A
HETATM   26  C18 F7N A1102       4.214  -8.903 -10.784  1.00  0.00     0.020 A
HETATM   27  C12 F7N A1102       5.961 -10.488 -11.692  1.00  0.00     0.129 C
HETATM   28  C17 F7N A1102       3.368  -8.469  -9.777  1.00  0.00     0.073 A
HETATM   29  C29 F7N A1102       2.495  -7.272  -9.985  1.00  0.00     0.419 C
HETATM   30  C16 F7N A1102       3.352  -9.171  -8.583  1.00  0.00     0.123 A
HETATM   31  F32 F7N A1102       2.201  -6.641  -8.849  1.00  0.00    -0.166 F
HETATM   32  F31 F7N A1102       1.326  -7.580 -10.539  1.00  0.00    -0.166 F
HETATM   33  F30 F7N A1102       3.054  -6.357 -10.777  1.00  0.00    -0.166 F
HETATM   34  N15 F7N A1102       4.116 -10.254  -8.364  1.00  0.00    -0.259 NA
ENDBRANCH  14  19
ENDBRANCH   9  11
ENDBRANCH   6   9
TORSDOF 4
