REMARK  7 active torsions:
REMARK  status: ('A' for Active; 'I' for Inactive)
REMARK    1  A    between atoms: C17_6  and  C16_9
REMARK    2  A    between atoms: N5_11  and  C13_13
REMARK    3  A    between atoms: C13_13  and  C15_14
REMARK    4  A    between atoms: C13_13  and  C12_20
REMARK    5  A    between atoms: C12_20  and  C10_21
REMARK    6  A    between atoms: C10_21  and  N2_22
REMARK    7  A    between atoms: C1_28  and  N1_30
ROOT
HETATM    1  F1  MRV A1101     144.604 112.055  17.610  1.00  0.00    -0.206 F
HETATM    2  C18 MRV A1101     145.214 113.128  18.214  1.00  0.00     0.249 C
HETATM    3  F2  MRV A1101     145.080 114.190  17.366  1.00  0.00    -0.206 F
HETATM    4  C23 MRV A1101     146.711 112.836  18.393  1.00  0.00     0.076 C
HETATM    5  C21 MRV A1101     146.898 111.600  19.267  1.00  0.00     0.018 C
HETATM    6  C17 MRV A1101     146.304 111.869  20.664  1.00  0.00     0.072 C
HETATM    7  C24 MRV A1101     144.547 113.414  19.608  1.00  0.00     0.076 C
HETATM    8  C22 MRV A1101     144.787 112.238  20.596  1.00  0.00     0.018 C
ENDROOT
BRANCH   6   9
HETATM    9  C16 MRV A1101     146.522 110.612  21.495  1.00  0.00     0.204 C
HETATM   10  O1  MRV A1101     145.979 109.547  21.179  1.00  0.00    -0.279 OA
HETATM   11  N5  MRV A1101     147.418 110.754  22.504  1.00  0.00    -0.251 N
HETATM   12  H5  MRV A1101     147.828 111.671  22.680  1.00  0.00     0.131 HD
BRANCH  11  13
HETATM   13  C13 MRV A1101     147.813 109.616  23.350  1.00  0.00     0.092 C
BRANCH  13  14
HETATM   14  C15 MRV A1101     148.041 109.947  24.690  1.00  0.00    -0.030 A
HETATM   15  C29 MRV A1101     148.501 110.445  27.391  1.00  0.00     0.000 A
HETATM   16  C27 MRV A1101     147.453 109.606  27.006  1.00  0.00     0.000 A
HETATM   17  C26 MRV A1101     149.101 110.781  25.080  1.00  0.00     0.005 A
HETATM   18  C25 MRV A1101     147.238 109.341  25.655  1.00  0.00     0.005 A
HETATM   19  C28 MRV A1101     149.327 111.030  26.431  1.00  0.00     0.000 A
ENDBRANCH  13  14
BRANCH  13  20
HETATM   20  C12 MRV A1101     149.033 108.961  22.722  1.00  0.00     0.039 C
BRANCH  20  21
HETATM   21  C10 MRV A1101     149.026 107.466  23.041  1.00  0.00     0.087 C
BRANCH  21  22
HETATM   22  N2  MRV A1101     150.377 106.864  22.918  1.00  0.00    -0.296 NA
HETATM   23  C8  MRV A1101     149.956 105.445  21.055  1.00  0.00     0.020 C
HETATM   24  C2  MRV A1101     150.768 106.680  21.499  1.00  0.00     0.058 C
HETATM   25  C9  MRV A1101     149.695 104.654  22.357  1.00  0.00     0.020 C
HETATM   26  C3  MRV A1101     150.426 105.465  23.437  1.00  0.00     0.058 C
HETATM   27  C6  MRV A1101     151.896 104.980  23.550  1.00  0.00     0.038 C
HETATM   28  C1  MRV A1101     152.669 105.187  22.209  1.00  0.00     0.072 C
HETATM   29  C5  MRV A1101     152.289 106.451  21.419  1.00  0.00     0.038 C
BRANCH  28  30
HETATM   30  N1  MRV A1101     154.162 104.885  22.194  1.00  0.00    -0.214 NA
HETATM   31  C4  MRV A1101     155.194 105.432  22.861  1.00  0.00     0.117 A
HETATM   32  C11 MRV A1101     155.071 106.457  24.015  1.00  0.00     0.045 C
HETATM   33  N3  MRV A1101     156.334 104.849  22.474  1.00  0.00    -0.140 NA
HETATM   34  N4  MRV A1101     156.086 104.042  21.597  1.00  0.00    -0.141 NA
HETATM   35  C19 MRV A1101     156.046 107.632  23.863  1.00  0.00     0.015 C
HETATM   36  C20 MRV A1101     155.216 105.716  25.352  1.00  0.00     0.015 C
HETATM   37  C7  MRV A1101     154.766 104.023  21.374  1.00  0.00     0.111 A
HETATM   38  C14 MRV A1101     154.073 103.152  20.311  1.00  0.00     0.081 C
ENDBRANCH  28  30
ENDBRANCH  21  22
ENDBRANCH  20  21
ENDBRANCH  13  20
ENDBRANCH  11  13
ENDBRANCH   6   9
TORSDOF 7
