MODEL        1
REMARK THIS MODEL IS IDENTICAL TO THE INPUT LIGAND AND NOT FROM DOCKING
REMARK 921   NORMALIZED FREE ENERGY PREDICTED BY IDOCK:   -0.46 KCAL/MOL
REMARK 922        TOTAL FREE ENERGY PREDICTED BY IDOCK:   -1.13 KCAL/MOL
REMARK 923 INTER-LIGAND FREE ENERGY PREDICTED BY IDOCK:   -0.65 KCAL/MOL
REMARK 924 INTRA-LIGAND FREE ENERGY PREDICTED BY IDOCK:   -0.48 KCAL/MOL
REMARK 927      BINDING AFFINITY PREDICTED BY RF-SCORE:    0.00 PKD
ROOT
HETATM    1  C1  ITD A1500     -28.403  -0.080  23.035  1.00  0.00    -0.420 C  
HETATM    2  C2  ITD A1500     -29.229   1.100  22.545  1.00  0.00    -0.326 C  
HETATM    3  C3  ITD A1500     -28.859   2.396  23.265  1.00  0.00    -0.651 C  
HETATM    4  C6  ITD A1500     -29.079   1.241  21.020  1.00  0.00    -0.222 C  
HETATM    5  N2  ITD A1500     -30.455   1.010  20.609  1.00  0.00    -0.212 NA 
HETATM    6  C4  ITD A1500     -31.268   0.778  21.601  1.00  0.00    -0.201 C  
HETATM    7  N1  ITD A1500     -30.641   0.818  22.781  1.00  0.00     0.667 NA 
HETATM    8  S1  ITD A1500     -32.903   0.534  21.160  1.00  0.00    -0.046 SA 
HETATM    9  C5  ITD A1500     -32.470   0.723  19.486  1.00  0.00    -0.193 C  
HETATM   10  C7  ITD A1500     -31.081   0.971  19.404  1.00  0.00    -0.194 C  
ENDROOT
BRANCH  10  11
HETATM   11  C8  ITD A1500     -30.368   1.233  18.104  1.00  0.00    -0.167 C  
BRANCH  11  12
HETATM   12  S2  ITD A1500     -30.272   2.983  17.927  1.00  0.00    -0.026 SA 
BRANCH  12  13
HETATM   13  C9  ITD A1500     -31.773   3.609  17.558  1.00  0.00    -0.251 C  
BRANCH  13  14
HETATM   14  N4  ITD A1500     -32.135   4.833  17.980  1.00  0.00    -0.650 NA 
HETATM   15  H4  ITD A1500     -32.384   5.503  17.252  1.00  0.00     0.000 HD 
BRANCH  14  16
HETATM   16  C16 ITD A1500     -32.216   5.324  19.363  1.00  0.00    -0.204 C  
HETATM   17  C21 ITD A1500     -32.010   6.838  19.411  1.00  0.00    -0.373 C  
HETATM   18  C20 ITD A1500     -32.245   7.409  20.812  1.00  0.00    -0.557 C  
HETATM   19  C17 ITD A1500     -31.260   4.683  20.371  1.00  0.00    -0.352 C  
HETATM   20  C18 ITD A1500     -31.481   5.214  21.790  1.00  0.00    -0.700 C  
HETATM   21  C19 ITD A1500     -31.377   6.738  21.877  1.00  0.00    -0.574 C  
ENDBRANCH  14  16
ENDBRANCH  13  14
BRANCH  13  22
HETATM   22  N3  ITD A1500     -32.532   2.822  16.783  1.00  0.00    -0.176 NA 
HETATM   23  H3  ITD A1500     -32.102   1.925  16.556  1.00  0.00     0.000 HD 
BRANCH  22  24
HETATM   24  C10 ITD A1500     -33.854   3.008  16.205  1.00  0.00    -0.207 C  
HETATM   25  C12 ITD A1500     -35.148   3.572  14.149  1.00  0.00     3.935 C  
HETATM   26  C11 ITD A1500     -33.818   3.750  14.876  1.00  0.00     1.105 C  
HETATM   27  C14 ITD A1500     -36.330   3.380  16.376  1.00  0.00    -0.314 C  
HETATM   28  C13 ITD A1500     -36.310   4.064  15.009  1.00  0.00     0.679 C  
HETATM   29  C15 ITD A1500     -34.986   3.489  17.106  1.00  0.00    -0.015 C  
ENDBRANCH  22  24
ENDBRANCH  13  22
ENDBRANCH  12  13
ENDBRANCH  11  12
ENDBRANCH  10  11
TORSDOF 7
ENDMDL
