REMARK  4 active torsions:
REMARK  status: ('A' for Active; 'I' for Inactive)
REMARK    1  A    between atoms: C6_8  and  C7_10
REMARK    2  A    between atoms: C8_11  and  C9_12
REMARK    3  A    between atoms: C10_14  and  C11_15
REMARK    4  A    between atoms: C12_16  and  C13_17
ROOT
HETATM    1  C1  RET A1332      40.533 135.391  -0.163  1.00  0.00    -0.010 C
HETATM    2  C2  RET A1332      41.458 134.258   0.307  1.00  0.00     0.011 C
HETATM    3  C17 RET A1332      39.824 135.148   1.168  1.00  0.00     0.016 C
HETATM    4  C16 RET A1332      39.128 135.160  -0.729  1.00  0.00     0.016 C
HETATM    5  C3  RET A1332      42.803 134.750   0.852  1.00  0.00     0.005 C
HETATM    6  C4  RET A1332      43.263 136.095   0.293  1.00  0.00     0.031 C
HETATM    7  C5  RET A1332      42.192 137.156   0.403  1.00  0.00    -0.069 C
HETATM    8  C6  RET A1332      40.900 136.834   0.209  1.00  0.00    -0.043 C
HETATM    9  C18 RET A1332      42.623 138.556   0.743  1.00  0.00     0.039 C
ENDROOT
BRANCH   8  10
HETATM   10  C7  RET A1332      39.846 137.881   0.281  1.00  0.00     0.004 C
HETATM   11  C8  RET A1332      39.117 138.100   1.372  1.00  0.00     0.003 C
BRANCH  11  12
HETATM   12  C9  RET A1332      38.074 139.140   1.392  1.00  0.00    -0.050 C
HETATM   13  C19 RET A1332      36.701 138.792   0.884  1.00  0.00     0.044 C
HETATM   14  C10 RET A1332      38.383 140.358   1.878  1.00  0.00     0.003 C
BRANCH  14  15
HETATM   15  C11 RET A1332      37.436 141.473   1.963  1.00  0.00     0.001 C
HETATM   16  C12 RET A1332      37.105 142.116   3.091  1.00  0.00     0.003 C
BRANCH  16  17
HETATM   17  C13 RET A1332      37.600 141.832   4.463  1.00  0.00    -0.055 C
HETATM   18  C14 RET A1332      37.267 142.669   5.459  1.00  0.00    -0.027 C
HETATM   19  C20 RET A1332      38.452 140.636   4.787  1.00  0.00     0.043 C
HETATM   20  C15 RET A1332      37.728 142.423   6.823  1.00  0.00     0.035 C
ENDBRANCH  16  17
ENDBRANCH  14  15
ENDBRANCH  11  12
ENDBRANCH   8  10
TORSDOF 4
