REMARK  6 active torsions:
REMARK  status: ('A' for Active; 'I' for Inactive)
REMARK    1  A    between atoms: OAR_2  and  CAW_3
REMARK    2  A    between atoms: CAV_5  and  NAP_10
REMARK    3  A    between atoms: CAX_6  and  CAS_13
REMARK    4  A    between atoms: NAQ_15  and  CAZ_17
REMARK    5  A    between atoms: NBA_20  and  CAO_23
REMARK    6  A    between atoms: CAO_23  and  CAT_24
ROOT
HETATM    1  CAB AQD A1201     -16.765  11.793 -16.344  1.00  0.00     0.202 C
HETATM    2  OAR AQD A1201     -16.479  13.184 -16.085  1.00  0.00    -0.347 OA
ENDROOT
BRANCH   2   3
HETATM    3  CAW AQD A1201     -15.615  13.449 -14.994  1.00  0.00     0.089 A
HETATM    4  CAK AQD A1201     -15.231  12.434 -14.098  1.00  0.00     0.054 A
HETATM    5  CAV AQD A1201     -14.376  12.763 -13.031  1.00  0.00     0.036 A
HETATM    6  CAX AQD A1201     -15.118  14.748 -14.834  1.00  0.00     0.065 A
HETATM    7  CAU AQD A1201     -13.891  14.071 -12.887  1.00  0.00     0.060 A
HETATM    8  CAL AQD A1201     -14.265  15.058 -13.780  1.00  0.00     0.037 A
HETATM    9 CLA  AQD A1201     -12.777  14.490 -11.593  1.00  0.00    -0.082 Cl
BRANCH   5  10
HETATM   10  NAP AQD A1201     -13.960  11.763 -12.096  1.00  0.00    -0.290 NA
HETATM   11  HAP AQD A1201     -13.192  11.943 -11.450  1.00  0.00     0.127 HD
HETATM   12  CAA AQD A1201     -14.651  10.489 -12.085  1.00  0.00     0.107 C
ENDBRANCH   5  10
BRANCH   6  13
HETATM   13  CAS AQD A1201     -15.526  15.904 -15.744  1.00  0.00     0.234 C
HETATM   14  OAD AQD A1201     -14.929  16.950 -15.642  1.00  0.00    -0.274 OA
HETATM   15  NAQ AQD A1201     -16.638  15.809 -16.648  1.00  0.00    -0.250 N
HETATM   16  HAQ AQD A1201     -17.173  14.943 -16.715  1.00  0.00     0.131 HD
BRANCH  15  17
HETATM   17  CAZ AQD A1201     -16.997  16.959 -17.469  1.00  0.00     0.079 C
HETATM   18  CAY AQD A1201     -17.416  16.578 -18.817  1.00  0.00     0.071 C
HETATM   19  CAC AQD A1201     -16.699  15.290 -19.320  1.00  0.00     0.026 C
HETATM   20  NBA AQD A1201     -18.795  16.355 -18.773  1.00  0.00    -0.294 NA
HETATM   21  CAM AQD A1201     -18.166  17.653 -16.797  1.00  0.00     0.036 C
HETATM   22  CAN AQD A1201     -19.349  17.390 -17.881  1.00  0.00     0.086 C
BRANCH  20  23
HETATM   23  CAO AQD A1201     -19.331  16.401 -20.098  1.00  0.00     0.120 C
BRANCH  23  24
HETATM   24  CAT AQD A1201     -20.852  16.758 -20.138  1.00  0.00    -0.033 A
HETATM   25  CAI AQD A1201     -21.259  18.001 -20.632  1.00  0.00     0.005 A
HETATM   26  CAG AQD A1201     -22.616  18.335 -20.665  1.00  0.00     0.000 A
HETATM   27  CAF AQD A1201     -23.565  17.421 -20.210  1.00  0.00     0.000 A
HETATM   28  CAH AQD A1201     -23.166  16.184 -19.721  1.00  0.00     0.000 A
HETATM   29  CAJ AQD A1201     -21.806  15.847 -19.682  1.00  0.00     0.005 A
ENDBRANCH  23  24
ENDBRANCH  20  23
ENDBRANCH  15  17
ENDBRANCH   6  13
ENDBRANCH   2   3
TORSDOF 6
