MODEL        1
REMARK THIS MODEL IS IDENTICAL TO THE INPUT LIGAND AND NOT FROM DOCKING
REMARK 921   NORMALIZED FREE ENERGY PREDICTED BY IDOCK:   -8.51 KCAL/MOL
REMARK 922        TOTAL FREE ENERGY PREDICTED BY IDOCK:  -17.42 KCAL/MOL
REMARK 923 INTER-LIGAND FREE ENERGY PREDICTED BY IDOCK:  -16.46 KCAL/MOL
REMARK 924 INTRA-LIGAND FREE ENERGY PREDICTED BY IDOCK:   -0.96 KCAL/MOL
REMARK 927      BINDING AFFINITY PREDICTED BY RF-SCORE:    0.00 PKD
ROOT
HETATM    1  CAG K5Y A1401      -6.331  -0.027  42.068  1.00  0.00    -0.737 A  
HETATM    2  CAZ K5Y A1401      -5.699  -1.226  42.381  1.00  0.00    -0.537 A  
HETATM    3  CAH K5Y A1401      -4.635  -1.231  43.276  1.00  0.00    -0.454 A  
HETATM    4  CAE K5Y A1401      -5.902   1.162  42.651  1.00  0.00    -0.703 A  
HETATM    5  CAF K5Y A1401      -4.207  -0.042  43.857  1.00  0.00    -0.379 A  
HETATM    6  CAD K5Y A1401      -4.838   1.155  43.545  1.00  0.00    -0.370 A  
ENDROOT
BRANCH   2   7
HETATM    7  CAV K5Y A1401      -6.124  -2.418  41.805  1.00  0.00    -0.536 C  
BRANCH   7   8
HETATM    8  CAQ K5Y A1401      -6.489  -3.420  42.909  1.00  0.00    -0.555 C  
BRANCH   8   9
HETATM    9  CAP K5Y A1401      -7.736  -2.937  43.656  1.00  0.00    -0.569 C  
BRANCH   9  10
HETATM   10  CAU K5Y A1401      -8.156  -3.980  44.691  1.00  0.00    -0.450 C  
BRANCH  10  11
HETATM   11  OAY K5Y A1401      -8.708  -5.118  44.030  1.00  0.00    -0.651 OA 
BRANCH  11  12
HETATM   12  CAT K5Y A1401      -9.656  -5.740  44.900  1.00  0.00    -0.442 C  
BRANCH  12  13
HETATM   13  CAO K5Y A1401     -10.357  -6.869  44.149  1.00  0.00    -0.548 C  
BRANCH  13  14
HETATM   14  CAM K5Y A1401     -11.034  -6.288  42.905  1.00  0.00    -0.560 C  
BRANCH  14  15
HETATM   15  CAL K5Y A1401     -11.797  -7.394  42.170  1.00  0.00    -0.654 C  
BRANCH  15  16
HETATM   16  CAN K5Y A1401     -12.779  -6.775  41.173  1.00  0.00    -0.497 C  
BRANCH  16  17
HETATM   17  CAS K5Y A1401     -12.115  -6.614  39.800  1.00  0.00    -0.386 C  
BRANCH  17  18
HETATM   18  NAX K5Y A1401     -13.066  -6.072  38.812  1.00  0.00    -0.833 NA 
HETATM   19  HAX K5Y A1401     -13.944  -6.591  38.812  1.00  0.00     0.000 HD 
BRANCH  18  20
HETATM   20  CAW K5Y A1401     -12.467  -6.023  37.470  1.00  0.00    -0.475 C  
BRANCH  20  21
HETATM   21  CBD K5Y A1401     -13.319  -5.149  36.542  1.00  0.00    -0.377 C  
HETATM   22  HAC K5Y A1401     -15.012  -5.626  37.419  1.00  0.00     0.000 HD 
HETATM   23  OAC K5Y A1401     -14.650  -5.665  36.541  1.00  0.00     0.368 OA 
BRANCH  21  24
HETATM   24  CBB K5Y A1401     -12.791  -5.206  35.260  1.00  0.00    -0.662 A  
HETATM   25  CAK K5Y A1401     -11.531  -4.671  34.995  1.00  0.00    -0.709 A  
HETATM   26  CBC K5Y A1401     -11.004  -4.734  33.710  1.00  0.00    -0.670 A  
HETATM   27  CBA K5Y A1401     -11.748  -5.335  32.704  1.00  0.00    -0.579 A  
HETATM   28  CAJ K5Y A1401     -13.525  -5.808  34.246  1.00  0.00    -0.886 A  
HETATM   29  HAB K5Y A1401     -10.338  -5.008  31.285  1.00  0.00     0.000 HD 
HETATM   30  CAI K5Y A1401     -13.000  -5.871  32.961  1.00  0.00    -0.859 A  
HETATM   31  OAB K5Y A1401     -11.196  -5.375  31.461  1.00  0.00    -0.916 OA 
BRANCH  26  32
HETATM   32  CAR K5Y A1401      -9.751  -4.205  33.429  1.00  0.00    -0.171 C  
HETATM   33  OAA K5Y A1401      -8.783  -5.256  33.475  1.00  0.00    -0.668 OA 
HETATM   34  HAA K5Y A1401      -7.926  -4.894  33.283  1.00  0.00     0.000 HD 
ENDBRANCH  26  32
ENDBRANCH  21  24
ENDBRANCH  20  21
ENDBRANCH  18  20
ENDBRANCH  17  18
ENDBRANCH  16  17
ENDBRANCH  15  16
ENDBRANCH  14  15
ENDBRANCH  13  14
ENDBRANCH  12  13
ENDBRANCH  11  12
ENDBRANCH  10  11
ENDBRANCH   9  10
ENDBRANCH   8   9
ENDBRANCH   7   8
ENDBRANCH   2   7
TORSDOF 16
ENDMDL
