MODEL        1
REMARK THIS MODEL IS IDENTICAL TO THE INPUT LIGAND AND NOT FROM DOCKING
REMARK 921   NORMALIZED FREE ENERGY PREDICTED BY IDOCK:   -3.40 KCAL/MOL
REMARK 922        TOTAL FREE ENERGY PREDICTED BY IDOCK:   -4.83 KCAL/MOL
REMARK 923 INTER-LIGAND FREE ENERGY PREDICTED BY IDOCK:   -4.20 KCAL/MOL
REMARK 924 INTRA-LIGAND FREE ENERGY PREDICTED BY IDOCK:   -0.63 KCAL/MOL
REMARK 927      BINDING AFFINITY PREDICTED BY RF-SCORE:    0.00 PKD
ROOT
HETATM    1  C1  RET A1000      19.266  44.725  61.143  1.00  0.00    -0.603 C  
HETATM    2  C17 RET A1000      19.129  43.966  59.829  1.00  0.00    -0.693 C  
HETATM    3  C6  RET A1000      17.866  44.880  61.941  1.00  0.00    -0.611 C  
HETATM    4  C16 RET A1000      19.814  46.135  60.806  1.00  0.00    -1.063 C  
HETATM    5  C5  RET A1000      17.769  44.615  63.267  1.00  0.00    -0.806 C  
HETATM    6  C2  RET A1000      20.391  44.067  62.026  1.00  0.00    -0.817 C  
HETATM    7  C18 RET A1000      16.542  44.764  64.129  1.00  0.00    -0.767 C  
HETATM    8  C4  RET A1000      18.982  44.109  64.032  1.00  0.00    -0.907 C  
HETATM    9  C3  RET A1000      19.967  43.345  63.177  1.00  0.00    -0.952 C  
ENDROOT
BRANCH   3  10
HETATM   10  C7  RET A1000      16.744  45.284  61.034  1.00  0.00    -0.511 C  
HETATM   11  C8  RET A1000      15.681  44.538  60.907  1.00  0.00    -0.682 C  
BRANCH  11  12
HETATM   12  C9  RET A1000      14.712  44.622  59.854  1.00  0.00    -0.511 C  
HETATM   13  C10 RET A1000      13.919  43.526  59.835  1.00  0.00    -0.537 C  
HETATM   14  C19 RET A1000      14.881  45.638  58.778  1.00  0.00    -0.643 C  
BRANCH  13  15
HETATM   15  C11 RET A1000      13.053  42.997  58.824  1.00  0.00    -0.650 C  
HETATM   16  C12 RET A1000      12.628  41.746  59.060  1.00  0.00    -0.655 C  
BRANCH  16  17
HETATM   17  C13 RET A1000      12.106  40.794  58.126  1.00  0.00    -0.556 C  
HETATM   18  C14 RET A1000      11.504  39.691  58.578  1.00  0.00     0.692 C  
HETATM   19  C20 RET A1000      12.404  41.012  56.670  1.00  0.00     0.589 C  
HETATM   20  C15 RET A1000      11.030  38.646  57.685  1.00  0.00     6.481 C  
ENDBRANCH  16  17
ENDBRANCH  13  15
ENDBRANCH  11  12
ENDBRANCH   3  10
TORSDOF 4
ENDMDL
