REMARK  4 active torsions:
REMARK  status: ('A' for Active; 'I' for Inactive)
REMARK    1  A    between atoms: C6_3  and  C7_10
REMARK    2  A    between atoms: C8_11  and  C9_12
REMARK    3  A    between atoms: C10_13  and  C11_15
REMARK    4  A    between atoms: C12_16  and  C13_17
ROOT
HETATM    1  C1  RET A1296      -7.084  17.617   1.424  1.00  0.00    -0.010 C
HETATM    2  C17 RET A1296      -7.571  17.767  -0.023  1.00  0.00     0.016 C
HETATM    3  C6  RET A1296      -6.544  16.161   1.666  1.00  0.00    -0.043 C
HETATM    4  C16 RET A1296      -8.314  17.926   2.283  1.00  0.00     0.016 C
HETATM    5  C5  RET A1296      -5.224  15.898   1.876  1.00  0.00    -0.069 C
HETATM    6  C2  RET A1296      -6.046  18.714   1.776  1.00  0.00     0.011 C
HETATM    7  C18 RET A1296      -4.611  14.552   2.187  1.00  0.00     0.039 C
HETATM    8  C4  RET A1296      -4.137  16.992   1.823  1.00  0.00     0.031 C
HETATM    9  C3  RET A1296      -4.627  18.391   1.343  1.00  0.00     0.005 C
ENDROOT
BRANCH   3  10
HETATM   10  C7  RET A1296      -7.594  15.105   1.663  1.00  0.00     0.004 C
HETATM   11  C8  RET A1296      -7.677  14.164   0.745  1.00  0.00     0.003 C
BRANCH  11  12
HETATM   12  C9  RET A1296      -8.668  13.140   0.560  1.00  0.00    -0.050 C
HETATM   13  C10 RET A1296      -8.409  12.341  -0.474  1.00  0.00     0.003 C
HETATM   14  C19 RET A1296      -9.872  13.068   1.502  1.00  0.00     0.044 C
BRANCH  13  15
HETATM   15  C11 RET A1296      -9.197  11.251  -0.967  1.00  0.00     0.001 C
HETATM   16  C12 RET A1296      -8.946  10.423  -2.011  1.00  0.00     0.003 C
BRANCH  16  17
HETATM   17  C13 RET A1296      -7.821  10.280  -2.970  1.00  0.00    -0.055 C
HETATM   18  C14 RET A1296      -7.955   9.264  -3.866  1.00  0.00    -0.027 C
HETATM   19  C20 RET A1296      -6.579  11.165  -2.982  1.00  0.00     0.043 C
HETATM   20  C15 RET A1296      -6.979   8.951  -4.871  1.00  0.00     0.035 C
ENDBRANCH  16  17
ENDBRANCH  13  15
ENDBRANCH  11  12
ENDBRANCH   3  10
TORSDOF 4
