REMARK  6 active torsions:
REMARK  status: ('A' for Active; 'I' for Inactive)
REMARK    1  A    between atoms: C5_2  and  C6_7
REMARK    2  A    between atoms: C6_7  and  C7_8
REMARK    3  A    between atoms: C7_8  and  N_9
REMARK    4  A    between atoms: N_9  and  S_11
REMARK    5  A    between atoms: C2_3  and  C14_21
REMARK    6  A    between atoms: S_11  and  C8_14
ROOT
HETATM    1  C4  A90 A9001      26.269 163.518 143.884  1.00  0.00     0.008 A
HETATM    2  C5  A90 A9001      26.453 162.245 144.433  1.00  0.00    -0.027 A
HETATM    3  C2  A90 A9001      26.426 164.521 146.077  1.00  0.00    -0.037 A
HETATM    4  C   A90 A9001      26.628 162.108 145.822  1.00  0.00     0.008 A
HETATM    5  C3  A90 A9001      26.264 164.650 144.701  1.00  0.00     0.005 A
HETATM    6  C1  A90 A9001      26.590 163.244 146.640  1.00  0.00     0.005 A
ENDROOT
BRANCH   2   7
HETATM    7  C6  A90 A9001      26.473 161.168 143.547  1.00  0.00     0.008 C
BRANCH   7   8
HETATM    8  C7  A90 A9001      26.277 159.805 144.206  1.00  0.00     0.230 C
BRANCH   8   9
HETATM    9  N   A90 A9001      26.482 158.756 143.203  1.00  0.00    -0.902 N
HETATM   10  H   A90 A9001      27.258 158.769 142.541  1.00  0.00     0.254 HD
BRANCH   9  11
HETATM   11  S   A90 A9001      25.365 157.565 143.234  1.00  0.00     2.573 S
HETATM   12  O1  A90 A9001      25.383 156.903 144.611  1.00  0.00    -0.924 OA
HETATM   13  O   A90 A9001      25.750 156.547 142.159  1.00  0.00    -0.924 OA
BRANCH  11  14
HETATM   14  C8  A90 A9001      23.753 158.200 142.880  1.00  0.00    -0.588 A
HETATM   15  C9  A90 A9001      23.294 158.195 141.561  1.00  0.00     0.124 A
HETATM   16  C10 A90 A9001      22.035 158.714 141.274  1.00  0.00     0.038 A
HETATM   17  C11 A90 A9001      21.247 159.257 142.294  1.00  0.00     0.043 A
HETATM   18 CL   A90 A9001      19.687 159.927 141.911  1.00  0.00    -0.083 Cl
HETATM   19  C12 A90 A9001      21.710 159.277 143.609  1.00  0.00     0.038 A
HETATM   20  C13 A90 A9001      22.956 158.723 143.904  1.00  0.00     0.124 A
ENDBRANCH  11  14
ENDBRANCH   9  11
ENDBRANCH   8   9
ENDBRANCH   7   8
ENDBRANCH   2   7
BRANCH   3  21
HETATM   21  C14 A90 A9001      26.390 165.672 146.860  1.00  0.00     0.143 C
HETATM   22  O2  A90 A9001      27.866 165.328 148.698  1.00  0.00    -0.648 OA
HETATM   23  C15 A90 A9001      27.721 165.902 147.600  1.00  0.00     0.180 C
HETATM   24  O3  A90 A9001      28.566 166.642 147.062  1.00  0.00    -0.648 OA
ENDBRANCH   3  21
TORSDOF 6
