REMARK  4 active torsions:
REMARK  status: ('A' for Active; 'I' for Inactive)
REMARK    1  A    between atoms: N2_2  and  C3_3
REMARK    2  A    between atoms: N2_2  and  S21_20
REMARK    3  A    between atoms: S21_20  and  C24_23
REMARK    4  A    between atoms: N16_15  and  C17_16
ROOT
HETATM    1  C1  FT4 A2408      42.792 -55.530 284.953  1.00  0.00     0.236 C
HETATM    2  N2  FT4 A2408      43.814 -54.526 284.662  1.00  0.00    -0.882 N
ENDROOT
BRANCH   2   3
HETATM    3  C3  FT4 A2408      44.850 -54.559 285.650  1.00  0.00     0.165 C
HETATM    4  C11 FT4 A2408      45.433 -51.564 289.429  1.00  0.00     0.010 A
HETATM    5  C9  FT4 A2408      44.539 -53.591 286.764  1.00  0.00     0.068 C
HETATM    6  C12 FT4 A2408      45.974 -50.957 290.582  1.00  0.00     0.001 A
HETATM    7  C13 FT4 A2408      46.915 -51.618 291.331  1.00  0.00     0.002 A
HETATM    8  C10 FT4 A2408      45.856 -52.844 289.047  1.00  0.00    -0.002 A
HETATM    9  C8  FT4 A2408      45.529 -53.754 287.959  1.00  0.00    -0.022 A
HETATM   10  C15 FT4 A2408      46.802 -53.513 289.798  1.00  0.00     0.030 A
HETATM   11  C7  FT4 A2408      46.306 -54.878 288.140  1.00  0.00     0.004 A
HETATM   12  C5  FT4 A2408      45.069 -56.011 286.217  1.00  0.00     0.037 C
HETATM   13  C14 FT4 A2408      47.341 -52.906 290.945  1.00  0.00     0.021 A
HETATM   14  C6  FT4 A2408      46.240 -56.063 287.195  1.00  0.00     0.050 C
HETATM   15  N16 FT4 A2408      47.050 -54.705 289.245  1.00  0.00    -0.237 NA
BRANCH  15  16
HETATM   16  C17 FT4 A2408      47.996 -55.681 289.768  1.00  0.00     0.203 C
HETATM   17  O19 FT4 A2408      50.464 -56.024 289.781  1.00  0.00    -0.647 OA
HETATM   18  C18 FT4 A2408      49.457 -55.193 289.595  1.00  0.00     0.192 C
HETATM   19  O20 FT4 A2408      49.689 -54.025 289.288  1.00  0.00    -0.647 OA
ENDBRANCH  15  16
ENDBRANCH   2   3
BRANCH   2  20
HETATM   20  S21 FT4 A2408      44.443 -54.738 283.108  1.00  0.00     2.572 S
HETATM   21  O22 FT4 A2408      43.313 -54.972 282.124  1.00  0.00    -0.924 OA
HETATM   22  O23 FT4 A2408      45.233 -53.497 282.711  1.00  0.00    -0.924 OA
BRANCH  20  23
HETATM   23  C24 FT4 A2408      45.543 -56.202 283.127  1.00  0.00    -0.588 A
HETATM   24  C30 FT4 A2408      45.013 -57.452 282.918  1.00  0.00     0.125 A
HETATM   25  C26 FT4 A2408      47.735 -57.167 283.385  1.00  0.00     0.056 A
HETATM   26  C29 FT4 A2408      45.840 -58.577 282.937  1.00  0.00     0.056 A
HETATM   27  C25 FT4 A2408      46.911 -56.050 283.365  1.00  0.00     0.125 A
HETATM   28  F28 FT4 A2408      48.008 -59.535 283.188  1.00  0.00    -0.205 F
HETATM   29  C27 FT4 A2408      47.196 -58.431 283.169  1.00  0.00     0.126 A
ENDBRANCH  20  23
ENDBRANCH   2  20
TORSDOF 4
