REMARK  4 active torsions:
REMARK  status: ('A' for Active; 'I' for Inactive)
REMARK    1  A    between atoms: C6_8  and  C7_10
REMARK    2  A    between atoms: C8_11  and  C9_12
REMARK    3  A    between atoms: C10_14  and  C11_15
REMARK    4  A    between atoms: C12_16  and  C13_17
ROOT
HETATM    1  C1  RET A 401     -43.285 -16.241  34.783  1.00  0.00    -0.010 C
HETATM    2  C2  RET A 401     -43.521 -17.749  34.895  1.00  0.00     0.011 C
HETATM    3  C17 RET A 401     -42.519 -15.841  36.041  1.00  0.00     0.016 C
HETATM    4  C16 RET A 401     -42.392 -15.904  33.586  1.00  0.00     0.016 C
HETATM    5  C3  RET A 401     -44.636 -18.220  33.976  1.00  0.00     0.005 C
HETATM    6  C4  RET A 401     -45.940 -17.536  34.330  1.00  0.00     0.031 C
HETATM    7  C5  RET A 401     -45.766 -16.038  34.302  1.00  0.00    -0.069 C
HETATM    8  C6  RET A 401     -44.594 -15.451  34.645  1.00  0.00    -0.043 C
HETATM    9  C18 RET A 401     -46.978 -15.226  33.972  1.00  0.00     0.039 C
ENDROOT
BRANCH   8  10
HETATM   10  C7  RET A 401     -44.497 -13.969  34.647  1.00  0.00     0.004 C
HETATM   11  C8  RET A 401     -44.907 -13.262  35.695  1.00  0.00     0.003 C
BRANCH  11  12
HETATM   12  C9  RET A 401     -44.736 -11.798  35.767  1.00  0.00    -0.050 C
HETATM   13  C19 RET A 401     -43.765 -11.081  34.860  1.00  0.00     0.044 C
HETATM   14  C10 RET A 401     -45.561 -11.164  36.629  1.00  0.00     0.003 C
BRANCH  14  15
HETATM   15  C11 RET A 401     -45.406  -9.791  37.120  1.00  0.00     0.001 C
HETATM   16  C12 RET A 401     -46.152  -9.459  38.183  1.00  0.00     0.003 C
BRANCH  16  17
HETATM   17  C13 RET A 401     -46.096  -8.150  38.894  1.00  0.00    -0.055 C
HETATM   18  C14 RET A 401     -47.091  -7.874  39.776  1.00  0.00    -0.027 C
HETATM   19  C20 RET A 401     -44.941  -7.209  38.669  1.00  0.00     0.043 C
HETATM   20  C15 RET A 401     -47.077  -6.748  40.713  1.00  0.00     0.035 C
ENDBRANCH  16  17
ENDBRANCH  14  15
ENDBRANCH  11  12
ENDBRANCH   8  10
TORSDOF 4
