MODEL        1
REMARK THIS MODEL IS IDENTICAL TO THE INPUT LIGAND AND NOT FROM DOCKING
REMARK 921   NORMALIZED FREE ENERGY PREDICTED BY IDOCK:   -6.90 KCAL/MOL
REMARK 922        TOTAL FREE ENERGY PREDICTED BY IDOCK:   -9.62 KCAL/MOL
REMARK 923 INTER-LIGAND FREE ENERGY PREDICTED BY IDOCK:   -9.32 KCAL/MOL
REMARK 924 INTRA-LIGAND FREE ENERGY PREDICTED BY IDOCK:   -0.30 KCAL/MOL
REMARK 927      BINDING AFFINITY PREDICTED BY RF-SCORE:    0.00 PKD
ROOT
HETATM    1  C1  JRZ A1203       1.285   0.331  51.536  1.00  0.00    -0.496 C  
HETATM    2  C5  JRZ A1203       1.274   1.454  50.482  1.00  0.00    -0.571 A  
HETATM    3  C4  JRZ A1203       2.123   2.498  50.876  1.00  0.00    -0.613 A  
HETATM    4  C10 JRZ A1203       2.215   3.658  50.090  1.00  0.00    -0.411 A  
HETATM    5  C3  JRZ A1203       2.762   2.135  52.240  1.00  0.00    -0.612 C  
HETATM    6  C2  JRZ A1203       1.830   1.052  52.740  1.00  0.00    -0.449 C  
HETATM    7  C7  JRZ A1203      -0.400   0.445  48.893  1.00  0.00     0.233 C  
HETATM    8  C9  JRZ A1203       1.493   3.743  48.890  1.00  0.00    -0.854 A  
HETATM    9  C6  JRZ A1203       0.545   1.565  49.305  1.00  0.00    -0.569 A  
HETATM   10  C8  JRZ A1203       0.659   2.695  48.503  1.00  0.00    -0.739 A  
ENDROOT
BRANCH   4  11
HETATM   11  O1  JRZ A1203       3.104   4.717  50.478  1.00  0.00    -0.393 OA 
BRANCH  11  12
HETATM   12  C11 JRZ A1203       2.949   6.053  49.986  1.00  0.00    -0.253 C  
BRANCH  12  13
HETATM   13  C12 JRZ A1203       3.618   7.065  50.957  1.00  0.00    -0.286 C  
HETATM   14  O2  JRZ A1203       3.517   8.359  50.405  1.00  0.00    -0.825 OA 
HETATM   15  H2  JRZ A1203       3.926   8.978  50.999  1.00  0.00     0.000 HD 
BRANCH  13  16
HETATM   16  C13 JRZ A1203       2.986   7.036  52.381  1.00  0.00    -0.405 C  
HETATM   17  C14 JRZ A1203       1.465   7.034  52.305  1.00  0.00    -0.389 C  
BRANCH  16  18
HETATM   18  N1  JRZ A1203       3.401   8.236  53.102  1.00  0.00    -0.563 NA 
HETATM   19  H1  JRZ A1203       2.832   9.036  52.825  1.00  0.00     0.000 HD 
BRANCH  18  20
HETATM   20  C15 JRZ A1203       3.400   8.086  54.546  1.00  0.00    -0.324 C  
HETATM   21  C17 JRZ A1203       2.143   8.723  55.130  1.00  0.00    -0.561 C  
HETATM   22  C16 JRZ A1203       4.607   8.814  55.119  1.00  0.00    -0.239 C  
ENDBRANCH  18  20
ENDBRANCH  16  18
ENDBRANCH  13  16
ENDBRANCH  12  13
ENDBRANCH  11  12
ENDBRANCH   4  11
TORSDOF 6
ENDMDL
