REMARK  4 active torsions:
REMARK  status: ('A' for Active; 'I' for Inactive)
REMARK    1  A    between atoms: C6_8  and  C7_10
REMARK    2  A    between atoms: C8_11  and  C9_12
REMARK    3  A    between atoms: C10_14  and  C11_15
REMARK    4  A    between atoms: C12_16  and  C13_17
ROOT
HETATM    1  C1  RET A 401       7.363  45.739  34.106  1.00  0.00    -0.010 C
HETATM    2  C2  RET A 401       6.161  46.472  34.735  1.00  0.00     0.011 C
HETATM    3  C17 RET A 401       7.632  44.483  34.965  1.00  0.00     0.016 C
HETATM    4  C16 RET A 401       6.975  45.284  32.701  1.00  0.00     0.016 C
HETATM    5  C3  RET A 401       5.816  47.739  33.947  1.00  0.00     0.005 C
HETATM    6  C4  RET A 401       7.027  48.664  33.866  1.00  0.00     0.031 C
HETATM    7  C5  RET A 401       8.382  48.018  33.797  1.00  0.00    -0.069 C
HETATM    8  C6  RET A 401       8.571  46.699  33.975  1.00  0.00    -0.043 C
HETATM    9  C18 RET A 401       9.564  48.907  33.586  1.00  0.00     0.039 C
ENDROOT
BRANCH   8  10
HETATM   10  C7  RET A 401       9.956  46.174  33.853  1.00  0.00     0.004 C
HETATM   11  C8  RET A 401      10.970  46.525  34.651  1.00  0.00     0.003 C
BRANCH  11  12
HETATM   12  C9  RET A 401      12.001  45.509  35.045  1.00  0.00    -0.050 C
HETATM   13  C19 RET A 401      11.981  44.069  34.528  1.00  0.00     0.044 C
HETATM   14  C10 RET A 401      12.992  45.889  35.881  1.00  0.00     0.003 C
BRANCH  14  15
HETATM   15  C11 RET A 401      13.958  44.917  36.346  1.00  0.00     0.001 C
HETATM   16  C12 RET A 401      15.020  45.343  37.004  1.00  0.00     0.003 C
BRANCH  16  17
HETATM   17  C13 RET A 401      15.820  44.411  37.862  1.00  0.00    -0.055 C
HETATM   18  C14 RET A 401      16.814  44.888  38.632  1.00  0.00    -0.027 C
HETATM   19  C20 RET A 401      15.441  42.963  38.033  1.00  0.00     0.043 C
HETATM   20  C15 RET A 401      17.318  44.069  39.720  1.00  0.00     0.035 C
ENDBRANCH  16  17
ENDBRANCH  14  15
ENDBRANCH  11  12
ENDBRANCH   8  10
TORSDOF 4
