MODEL        1
REMARK THIS MODEL IS IDENTICAL TO THE INPUT LIGAND AND NOT FROM DOCKING
REMARK 921   NORMALIZED FREE ENERGY PREDICTED BY IDOCK:  -10.09 KCAL/MOL
REMARK 922        TOTAL FREE ENERGY PREDICTED BY IDOCK:  -15.73 KCAL/MOL
REMARK 923 INTER-LIGAND FREE ENERGY PREDICTED BY IDOCK:  -14.81 KCAL/MOL
REMARK 924 INTRA-LIGAND FREE ENERGY PREDICTED BY IDOCK:   -0.92 KCAL/MOL
REMARK 927      BINDING AFFINITY PREDICTED BY RF-SCORE:    0.00 PKD
ROOT
HETATM    1  CAK 9ER A1201      29.137  -3.382   9.551  1.00  0.00    -0.565 C  
HETATM    2  CAJ 9ER A1201      29.930  -4.672   9.842  1.00  0.00    -0.284 C  
HETATM    3  CAL 9ER A1201      30.747  -4.715  11.145  1.00  0.00    -0.413 C  
ENDROOT
BRANCH   2   4
HETATM    4  CAH 9ER A1201      30.474  -5.334   8.722  1.00  0.00    -0.339 A  
HETATM    5  CAI 9ER A1201      29.784  -6.500   8.431  1.00  0.00    -0.361 A  
HETATM    6  CAD 9ER A1201      30.105  -7.331   7.366  1.00  0.00    -0.410 A  
HETATM    7  CAB 9ER A1201      29.328  -8.497   7.241  1.00  0.00    -0.463 C  
HETATM    8  CAE 9ER A1201      31.200  -6.974   6.557  1.00  0.00    -0.472 A  
HETATM    9  CAF 9ER A1201      31.948  -5.792   6.809  1.00  0.00    -0.420 A  
HETATM   10  CAA 9ER A1201      27.939  -8.199   6.692  1.00  0.00    -0.568 C  
HETATM   11  CAC 9ER A1201      30.006  -9.671   6.530  1.00  0.00    -0.570 C  
HETATM   12  CBE 9ER A1201      33.030  -5.437   5.959  1.00  0.00    -0.477 C  
HETATM   13  CAG 9ER A1201      31.556  -4.934   7.883  1.00  0.00    -0.387 A  
HETATM   14  CBG 9ER A1201      32.564  -5.165   4.539  1.00  0.00    -0.858 C  
HETATM   15  CBF 9ER A1201      34.186  -6.433   5.981  1.00  0.00    -0.600 C  
BRANCH  13  16
HETATM   16  CAM 9ER A1201      32.283  -3.832   8.176  1.00  0.00    -0.323 A  
HETATM   17  CAN 9ER A1201      31.981  -2.587   7.766  1.00  0.00    -0.344 A  
HETATM   18  SAO 9ER A1201      33.123  -1.589   8.438  1.00  0.00    -0.435 SA 
HETATM   19  CAP 9ER A1201      33.964  -2.767   9.211  1.00  0.00    -0.285 A  
HETATM   20  NAQ 9ER A1201      33.360  -3.928   8.977  1.00  0.00    -0.299 NA 
BRANCH  19  21
HETATM   21  NAR 9ER A1201      35.023  -2.633  10.020  1.00  0.00    -0.272 NA 
BRANCH  21  22
HETATM   22  CAS 9ER A1201      35.582  -3.838  10.697  1.00  0.00    -0.360 C  
BRANCH  22  23
HETATM   23  CAT 9ER A1201      34.956  -3.968  12.096  1.00  0.00    -0.357 C  
BRANCH  23  24
HETATM   24  NAU 9ER A1201      35.121  -5.302  12.682  1.00  0.00    -0.301 NA 
HETATM   25  CAV 9ER A1201      33.814  -5.702  13.230  1.00  0.00    -0.253 C  
HETATM   26  CAW 9ER A1201      36.097  -5.245  13.782  1.00  0.00    -0.286 C  
ENDBRANCH  23  24
ENDBRANCH  22  23
ENDBRANCH  21  22
BRANCH  21  27
HETATM   27  CAX 9ER A1201      35.607  -1.288  10.378  1.00  0.00    -0.285 C  
BRANCH  27  28
HETATM   28  CAY 9ER A1201      36.972  -1.251  10.103  1.00  0.00    -0.676 A  
HETATM   29  CAZ 9ER A1201      37.895  -1.494  11.123  1.00  0.00    -0.539 A  
HETATM   30  NBA 9ER A1201      39.267  -1.572  10.813  1.00  0.00    -0.430 NA 
HETATM   31  CBD 9ER A1201      37.412  -1.056   8.789  1.00  0.00    -1.056 A  
HETATM   32  CBC 9ER A1201      38.776  -1.125   8.486  1.00  0.00    -0.819 A  
HETATM   33  CBB 9ER A1201      39.713  -1.384   9.492  1.00  0.00    -0.298 A  
ENDBRANCH  27  28
ENDBRANCH  21  27
ENDBRANCH  19  21
ENDBRANCH  13  16
ENDBRANCH   2   4
TORSDOF 8
ENDMDL
