REMARK  6 active torsions:
REMARK  status: ('A' for Active; 'I' for Inactive)
REMARK    1  A    between atoms: C16_2  and  C15_4
REMARK    2  A    between atoms: C16_2  and  C18_20
REMARK    3  A    between atoms: C15_4  and  O14_5
REMARK    4  A    between atoms: C18_20  and  N19_21
REMARK    5  A    between atoms: O14_5  and  C13_6
REMARK    6  A    between atoms: N19_21  and  C20_23
ROOT
HETATM    1  O17 CAU A1202     -33.824  10.985   8.043  1.00  0.00    -0.388 OA
HETATM    2  C16 CAU A1202     -32.584  10.354   8.126  1.00  0.00     0.154 C
HETATM    3  H17 CAU A1202     -33.760  11.876   8.367  1.00  0.00     0.210 HD
ENDROOT
BRANCH   2   4
HETATM    4  C15 CAU A1202     -31.549  11.111   7.291  1.00  0.00     0.200 C
BRANCH   4   5
HETATM    5  O14 CAU A1202     -30.271  10.510   7.537  1.00  0.00    -0.341 OA
BRANCH   5   6
HETATM    6  C13 CAU A1202     -29.183  10.994   6.737  1.00  0.00     0.086 A
HETATM    7  C12 CAU A1202     -29.294  12.256   6.169  1.00  0.00     0.033 A
HETATM    8  C9  CAU A1202     -28.018  10.228   6.527  1.00  0.00     0.032 A
HETATM    9  C11 CAU A1202     -28.250  12.759   5.389  1.00  0.00     0.004 A
HETATM   10  C10 CAU A1202     -27.102  12.000   5.181  1.00  0.00     0.021 A
HETATM   11  C4  CAU A1202     -27.654   8.958   6.972  1.00  0.00     0.004 A
HETATM   12  C5  CAU A1202     -28.321   8.021   7.777  1.00  0.00     0.010 A
HETATM   13  C6  CAU A1202     -27.717   6.806   8.073  1.00  0.00     0.001 A
HETATM   14  C1  CAU A1202     -26.451   6.520   7.570  1.00  0.00     0.002 A
HETATM   15  C2  CAU A1202     -25.790   7.447   6.774  1.00  0.00     0.020 A
HETATM   16  C3  CAU A1202     -26.401   8.676   6.474  1.00  0.00     0.028 A
HETATM   17  N7  CAU A1202     -25.985   9.765   5.721  1.00  0.00    -0.257 NA
HETATM   18  C8  CAU A1202     -26.990  10.723   5.757  1.00  0.00     0.030 A
HETATM   19  H7  CAU A1202     -25.096   9.847   5.227  1.00  0.00     0.134 HD
ENDBRANCH   5   6
ENDBRANCH   4   5
ENDBRANCH   2   4
BRANCH   2  20
HETATM   20  C18 CAU A1202     -32.687   8.929   7.608  1.00  0.00     0.114 C
BRANCH  20  21
HETATM   21  N19 CAU A1202     -34.052   8.439   7.744  1.00  0.00    -0.311 NA
HETATM   22  H19 CAU A1202     -34.688   8.875   7.076  1.00  0.00     0.122 HD
BRANCH  21  23
HETATM   23  C20 CAU A1202     -34.055   6.990   7.641  1.00  0.00     0.048 C
HETATM   24  C22 CAU A1202     -35.379   6.444   8.155  1.00  0.00     0.023 C
HETATM   25  C21 CAU A1202     -33.879   6.579   6.185  1.00  0.00     0.023 C
ENDBRANCH  21  23
ENDBRANCH  20  21
ENDBRANCH   2  20
TORSDOF 6
