REMARK  4 active torsions:
REMARK  status: ('A' for Active; 'I' for Inactive)
REMARK    1  A    between atoms: C6_8  and  C7_10
REMARK    2  A    between atoms: C8_11  and  C9_12
REMARK    3  A    between atoms: C10_14  and  C11_15
REMARK    4  A    between atoms: C12_16  and  C13_17
ROOT
HETATM    1  C1  RET A 380      42.793   5.187  12.506  1.00  0.00    -0.010 C
HETATM    2  C2  RET A 380      41.740   5.779  11.521  1.00  0.00     0.011 C
HETATM    3  C17 RET A 380      44.232   5.029  11.868  1.00  0.00     0.016 C
HETATM    4  C16 RET A 380      42.241   3.854  12.790  1.00  0.00     0.016 C
HETATM    5  C3  RET A 380      42.014   7.254  11.308  1.00  0.00     0.005 C
HETATM    6  C4  RET A 380      41.973   8.073  12.518  1.00  0.00     0.031 C
HETATM    7  C5  RET A 380      42.644   7.463  13.741  1.00  0.00    -0.069 C
HETATM    8  C6  RET A 380      43.027   6.068  13.766  1.00  0.00    -0.043 C
HETATM    9  C18 RET A 380      42.894   8.434  14.868  1.00  0.00     0.039 C
ENDROOT
BRANCH   8  10
HETATM   10  C7  RET A 380      43.741   5.317  14.887  1.00  0.00     0.004 C
HETATM   11  C8  RET A 380      44.259   6.026  15.817  1.00  0.00     0.003 C
BRANCH  11  12
HETATM   12  C9  RET A 380      45.006   5.752  17.030  1.00  0.00    -0.050 C
HETATM   13  C19 RET A 380      45.279   4.329  17.312  1.00  0.00     0.044 C
HETATM   14  C10 RET A 380      45.463   6.753  17.776  1.00  0.00     0.003 C
BRANCH  14  15
HETATM   15  C11 RET A 380      46.371   6.697  18.936  1.00  0.00     0.001 C
HETATM   16  C12 RET A 380      46.767   7.703  19.706  1.00  0.00     0.003 C
BRANCH  16  17
HETATM   17  C13 RET A 380      46.445   9.137  19.808  1.00  0.00    -0.055 C
HETATM   18  C14 RET A 380      46.898   9.839  20.814  1.00  0.00    -0.027 C
HETATM   19  C20 RET A 380      45.519   9.755  18.773  1.00  0.00     0.043 C
HETATM   20  C15 RET A 380      46.534  11.215  20.924  1.00  0.00     0.035 C
ENDBRANCH  16  17
ENDBRANCH  14  15
ENDBRANCH  11  12
ENDBRANCH   8  10
TORSDOF 4
