REMARK  5 active torsions:
REMARK  status: ('A' for Active; 'I' for Inactive)
REMARK    1  A    between atoms: C10_3  and  C11_4
REMARK    2  A    between atoms: C10_3  and  C9_11
REMARK    3  A    between atoms: C9_11  and  O1_12
REMARK    4  A    between atoms: C11_4  and  N2_5
REMARK    5  A    between atoms: O1_12  and  C4_13
ROOT
HETATM    1  O2  P32 A 400      15.721  18.164  -8.348  1.00  0.00    -0.388 OA
HETATM    2  H2  P32 A 400      15.018  18.649  -7.932  1.00  0.00     0.210 HD
HETATM    3  C10 P32 A 400      16.736  19.134  -8.683  1.00  0.00     0.154 C
ENDROOT
BRANCH   3   4
HETATM    4  C11 P32 A 400      17.255  19.863  -7.462  1.00  0.00     0.115 C
BRANCH   4   5
HETATM    5  N2  P32 A 400      16.132  20.549  -6.788  1.00  0.00    -0.309 NA
HETATM    6  H2  P32 A 400      15.377  19.902  -6.558  1.00  0.00     0.123 HD
HETATM    7  C14 P32 A 400      17.628  22.343  -5.993  1.00  0.00     0.027 C
HETATM    8  C12 P32 A 400      16.614  21.293  -5.579  1.00  0.00     0.011 C
HETATM    9  C13 P32 A 400      15.527  22.079  -4.900  1.00  0.00     0.027 C
HETATM   10  C15 P32 A 400      17.175  20.363  -4.490  1.00  0.00     0.027 C
ENDBRANCH   4   5
ENDBRANCH   3   4
BRANCH   3  11
HETATM   11  C9  P32 A 400      17.879  18.346  -9.360  1.00  0.00     0.200 C
BRANCH  11  12
HETATM   12  O1  P32 A 400      18.954  19.198  -9.729  1.00  0.00    -0.341 OA
BRANCH  12  13
HETATM   13  C4  P32 A 400      19.959  18.490 -10.337  1.00  0.00     0.085 A
HETATM   14  C5  P32 A 400      19.854  17.135 -10.638  1.00  0.00     0.033 A
HETATM   15  C6  P32 A 400      20.921  16.507 -11.253  1.00  0.00     0.004 A
HETATM   16  C7  P32 A 400      22.048  17.245 -11.561  1.00  0.00     0.020 A
HETATM   17  C8  P32 A 400      22.101  18.540 -11.250  1.00  0.00     0.030 A
HETATM   18  C3  P32 A 400      21.074  19.160 -10.643  1.00  0.00     0.025 A
HETATM   19  C2  P32 A 400      21.422  20.437 -10.463  1.00  0.00     0.043 A
HETATM   20  C1  P32 A 400      22.644  20.585 -10.965  1.00  0.00     0.099 A
HETATM   21  N1  P32 A 400      23.071  19.429 -11.448  1.00  0.00    -0.249 NA
HETATM   22  C16 P32 A 400      23.409  21.800 -10.979  1.00  0.00     0.111 C
HETATM   23  N3  P32 A 400      24.014  22.744 -10.983  1.00  0.00    -0.190 NA
HETATM   24  H1  P32 A 400      23.974  19.253 -11.889  1.00  0.00     0.134 HD
ENDBRANCH  12  13
ENDBRANCH  11  12
ENDBRANCH   3  11
TORSDOF 5
