REMARK  5 active torsions:
REMARK  status: ('A' for Active; 'I' for Inactive)
REMARK    1  A    between atoms: C7_8  and  C8_9
REMARK    2  A    between atoms: C8_9  and  C9_10
REMARK    3  A    between atoms: C9_10  and  N10_11
REMARK    4  A    between atoms: N10_11  and  C11_13
REMARK    5  A    between atoms: C20_19  and  C21_25
ROOT
HETATM    1  C1  ZMA A 401     -79.943 -16.409 -50.273  1.00  0.00     0.006 A
HETATM    2  C2  ZMA A 401     -80.324 -16.862 -51.523  1.00  0.00     0.033 A
HETATM    3  C3  ZMA A 401     -79.612 -17.886 -52.129  1.00  0.00     0.073 A
HETATM    4  O4  ZMA A 401     -79.992 -18.335 -53.373  1.00  0.00    -0.360 OA
HETATM    5  C5  ZMA A 401     -78.523 -18.459 -51.487  1.00  0.00     0.033 A
HETATM    6  H4  ZMA A 401     -79.504 -19.037 -53.788  1.00  0.00     0.217 HD
HETATM    7  C6  ZMA A 401     -78.141 -18.005 -50.235  1.00  0.00     0.006 A
HETATM    8  C7  ZMA A 401     -78.854 -16.981 -49.629  1.00  0.00    -0.046 A
ENDROOT
BRANCH   8   9
HETATM    9  C8  ZMA A 401     -78.462 -16.480 -48.290  1.00  0.00     0.050 C
BRANCH   9  10
HETATM   10  C9  ZMA A 401     -78.170 -15.023 -48.205  1.00  0.00     0.094 C
BRANCH  10  11
HETATM   11  N10 ZMA A 401     -77.364 -14.582 -47.134  1.00  0.00    -0.256 NA
HETATM   12  H10 ZMA A 401     -77.580 -14.848 -46.173  1.00  0.00     0.131 HD
BRANCH  11  13
HETATM   13  C11 ZMA A 401     -76.247 -13.760 -47.425  1.00  0.00     0.207 C
HETATM   14  N12 ZMA A 401     -75.489 -13.277 -46.424  1.00  0.00    -0.185 NA
HETATM   15  C18 ZMA A 401     -74.401 -12.487 -46.707  1.00  0.00     0.236 A
HETATM   16  N16 ZMA A 401     -74.102 -12.204 -47.973  1.00  0.00    -0.072 NA
HETATM   17  N17 ZMA A 401     -72.964 -11.389 -47.966  1.00  0.00    -0.161 NA
HETATM   18  C14 ZMA A 401     -74.880 -12.698 -48.994  1.00  0.00     0.184 C
HETATM   19  C20 ZMA A 401     -72.595 -11.201 -46.681  1.00  0.00     0.201 A
HETATM   20  N13 ZMA A 401     -75.946 -13.474 -48.713  1.00  0.00    -0.192 NA
HETATM   21  N15 ZMA A 401     -74.564 -12.393 -50.356  1.00  0.00    -0.275 NA
HETATM   22 2H15 ZMA A 401     -75.388 -11.984 -50.796  1.00  0.00     0.126 HD
HETATM   23 1H15 ZMA A 401     -73.758 -11.806 -50.569  1.00  0.00     0.126 HD
HETATM   24  N19 ZMA A 401     -73.470 -11.865 -45.902  1.00  0.00    -0.192 NA
BRANCH  19  25
HETATM   25  C21 ZMA A 401     -71.527 -10.447 -46.247  1.00  0.00     0.128 A
HETATM   26  O25 ZMA A 401     -70.463 -10.086 -46.993  1.00  0.00    -0.313 OA
HETATM   27  C24 ZMA A 401     -69.637  -9.347 -46.234  1.00  0.00     0.136 A
HETATM   28  C23 ZMA A 401     -70.187  -9.221 -44.970  1.00  0.00     0.028 A
HETATM   29  C22 ZMA A 401     -71.383  -9.913 -44.978  1.00  0.00     0.039 A
ENDBRANCH  19  25
ENDBRANCH  11  13
ENDBRANCH  10  11
ENDBRANCH   9  10
ENDBRANCH   8   9
TORSDOF 5
