REMARK  4 active torsions:
REMARK  status: ('A' for Active; 'I' for Inactive)
REMARK    1  A    between atoms: CAK_2  and  CAW_3
REMARK    2  A    between atoms: CAW_3  and  CAL_4
REMARK    3  A    between atoms: CAW_3  and  NAO_7
REMARK    4  A    between atoms: CAP_8  and  CAV_11
ROOT
HETATM    1  CAA H8J A1206      22.959  22.397  12.467  1.00  0.00     0.005 C
HETATM    2  CAK H8J A1206      21.605  21.780  12.644  1.00  0.00     0.018 C
ENDROOT
BRANCH   2   3
HETATM    3  CAW H8J A1206      21.742  20.278  12.846  1.00  0.00     0.086 C
BRANCH   3   4
HETATM    4  CAL H8J A1206      20.806  19.842  13.955  1.00  0.00     0.174 C
HETATM    5  HAE H8J A1206      20.716  18.361  15.240  1.00  0.00     0.209 HD
HETATM    6  OAE H8J A1206      21.303  18.634  14.545  1.00  0.00    -0.393 OA
ENDBRANCH   3   4
BRANCH   3   7
HETATM    7  NAO H8J A1206      21.444  19.573  11.633  1.00  0.00    -0.253 N
HETATM    8  CAP H8J A1206      22.404  18.639  11.109  1.00  0.00     0.209 C
HETATM    9  HAO H8J A1206      20.561  19.732  11.148  1.00  0.00     0.131 HD
HETATM   10  OAD H8J A1206      23.458  18.472  11.694  1.00  0.00    -0.279 OA
BRANCH   8  11
HETATM   11  CAV H8J A1206      22.133  17.849   9.811  1.00  0.00     0.109 C
HETATM   12  CAN H8J A1206      22.423  18.736   8.616  1.00  0.00     0.101 C
HETATM   13  NAY H8J A1206      22.465  17.997   7.363  1.00  0.00    -0.294 NA
HETATM   14  CAX H8J A1206      23.662  17.160   7.375  1.00  0.00     0.111 C
HETATM   15  CAB H8J A1206      22.530  18.930   6.267  1.00  0.00     0.105 C
HETATM   16  CAM H8J A1206      23.565  16.289   6.121  1.00  0.00     0.006 C
HETATM   17  CAR H8J A1206      24.386  15.165   6.157  1.00  0.00    -0.007 A
HETATM   18  CAJ H8J A1206      24.934  14.354   5.270  1.00  0.00     0.068 A
HETATM   19  NAZ H8J A1206      25.661  13.421   5.849  1.00  0.00    -0.253 NA
HETATM   20  CAT H8J A1206      25.612  13.592   7.166  1.00  0.00     0.030 A
HETATM   21  CAC H8J A1206      26.389  12.385   5.162  1.00  0.00     0.116 C
HETATM   22  CAI H8J A1206      26.121  12.991   8.239  1.00  0.00     0.021 A
HETATM   23  CAG H8J A1206      25.819  13.499   9.499  1.00  0.00     0.002 A
HETATM   24  CAH H8J A1206      24.998  14.618   9.664  1.00  0.00     0.009 A
HETATM   25  CAS H8J A1206      24.484  15.219   8.514  1.00  0.00    -0.011 A
HETATM   26  CAQ H8J A1206      23.652  16.355   8.517  1.00  0.00    -0.022 C
HETATM   27  CAU H8J A1206      24.816  14.678   7.334  1.00  0.00     0.009 A
HETATM   28  CAF H8J A1206      22.943  16.706   9.672  1.00  0.00    -0.007 C
ENDBRANCH   8  11
ENDBRANCH   3   7
ENDBRANCH   2   3
TORSDOF 4
