MODEL        1
REMARK THIS MODEL IS IDENTICAL TO THE INPUT LIGAND AND NOT FROM DOCKING
REMARK 921   NORMALIZED FREE ENERGY PREDICTED BY IDOCK:  -10.92 KCAL/MOL
REMARK 922        TOTAL FREE ENERGY PREDICTED BY IDOCK:  -15.26 KCAL/MOL
REMARK 923 INTER-LIGAND FREE ENERGY PREDICTED BY IDOCK:  -14.11 KCAL/MOL
REMARK 924 INTRA-LIGAND FREE ENERGY PREDICTED BY IDOCK:   -1.15 KCAL/MOL
REMARK 927      BINDING AFFINITY PREDICTED BY RF-SCORE:    0.00 PKD
ROOT
HETATM    1  C1  JDC A1300       3.212 -20.410  59.668  1.00  0.00    -0.134 C  
HETATM    2  N2  JDC A1300       2.925 -21.788  59.558  1.00  0.00    -0.462 NA 
HETATM    3  C3  JDC A1300       2.200 -22.081  58.366  1.00  0.00    -0.236 C  
HETATM    4  H2  JDC A1300       3.773 -22.351  59.626  1.00  0.00     0.000 HD 
HETATM    5  C4  JDC A1300       0.834 -21.417  58.395  1.00  0.00    -0.488 C  
HETATM    6  C7  JDC A1300       1.111 -17.258  59.670  1.00  0.00    -0.391 A  
HETATM    7  H7  JDC A1300       2.027 -15.671  60.492  1.00  0.00     0.000 HD 
HETATM    8  C8A JDC A1300       2.050 -19.540  59.431  1.00  0.00    -0.428 A  
HETATM    9  C4A JDC A1300       0.941 -19.983  58.845  1.00  0.00    -0.489 A  
HETATM   10  C6  JDC A1300      -0.050 -17.705  59.061  1.00  0.00    -0.669 A  
HETATM   11  C5  JDC A1300      -0.162 -19.056  58.639  1.00  0.00    -0.650 A  
HETATM   12  O7  JDC A1300       1.231 -15.978  60.074  1.00  0.00    -0.149 OA 
HETATM   13  C8  JDC A1300       2.166 -18.147  59.863  1.00  0.00    -0.670 A  
ENDROOT
BRANCH   3  14
HETATM   14  C1A JDC A1300       2.111 -23.598  58.190  1.00  0.00    -0.080 C  
HETATM   15  O1  JDC A1300       1.727 -24.318  59.120  1.00  0.00     0.106 OA 
HETATM   16  N2A JDC A1300       2.503 -24.178  56.921  1.00  0.00    -0.329 N  
HETATM   17  H2A JDC A1300       2.825 -23.570  56.168  1.00  0.00     0.000 HD 
BRANCH  16  18
HETATM   18  C2A JDC A1300       2.445 -25.585  56.711  1.00  0.00    -0.346 C  
HETATM   19  C3B JDC A1300       1.576 -27.107  54.864  1.00  0.00    -0.885 C  
HETATM   20  C3D JDC A1300       0.193 -25.053  55.545  1.00  0.00    -0.705 C  
HETATM   21  C3A JDC A1300       1.614 -25.743  55.429  1.00  0.00    -0.605 C  
BRANCH  18  22
HETATM   22  C4D JDC A1300       3.811 -26.223  56.565  1.00  0.00    -0.336 C  
BRANCH  22  23
HETATM   23  N11 JDC A1300       4.678 -26.293  57.835  1.00  0.00    -0.604 NA 
HETATM   24  C61 JDC A1300       6.115 -26.461  57.818  1.00  0.00    -0.370 C  
HETATM   25  C51 JDC A1300       6.752 -26.272  59.152  1.00  0.00    -0.461 C  
HETATM   26  C41 JDC A1300       6.129 -27.032  60.202  1.00  0.00    -0.382 C  
HETATM   27  C4E JDC A1300       6.423 -28.478  59.844  1.00  0.00    -0.410 C  
HETATM   28  C31 JDC A1300       4.679 -26.846  60.229  1.00  0.00    -0.246 C  
HETATM   29  C21 JDC A1300       4.043 -27.036  58.903  1.00  0.00    -0.370 C  
HETATM   30  C34 JDC A1300       4.312 -25.401  60.739  1.00  0.00    -0.362 C  
BRANCH  26  31
HETATM   31  C1C JDC A1300       6.721 -26.803  61.593  1.00  0.00    -0.369 A  
HETATM   32  C2C JDC A1300       6.111 -27.382  62.709  1.00  0.00    -0.311 A  
HETATM   33  C3C JDC A1300       6.658 -27.175  63.992  1.00  0.00    -0.312 A  
HETATM   34  O3C JDC A1300       6.021 -27.774  65.151  1.00  0.00    -0.278 OA 
HETATM   35  C4C JDC A1300       7.839 -26.372  64.148  1.00  0.00    -0.575 A  
HETATM   36  H3C JDC A1300       6.390 -27.635  66.015  1.00  0.00     0.000 HD 
HETATM   37  C5C JDC A1300       8.441 -25.801  63.038  1.00  0.00    -0.668 A  
HETATM   38  C6C JDC A1300       7.899 -26.005  61.754  1.00  0.00    -0.452 A  
ENDBRANCH  26  31
ENDBRANCH  22  23
ENDBRANCH  18  22
ENDBRANCH  16  18
ENDBRANCH   3  14
TORSDOF 5
ENDMDL
