MODEL        1
REMARK THIS MODEL IS IDENTICAL TO THE INPUT LIGAND AND NOT FROM DOCKING
REMARK 921   NORMALIZED FREE ENERGY PREDICTED BY IDOCK:  -12.43 KCAL/MOL
REMARK 922        TOTAL FREE ENERGY PREDICTED BY IDOCK:  -18.48 KCAL/MOL
REMARK 923 INTER-LIGAND FREE ENERGY PREDICTED BY IDOCK:  -16.79 KCAL/MOL
REMARK 924 INTRA-LIGAND FREE ENERGY PREDICTED BY IDOCK:   -1.69 KCAL/MOL
REMARK 927      BINDING AFFINITY PREDICTED BY RF-SCORE:    0.00 PKD
ROOT
HETATM    1  C4  SG8 A1201     -21.066  67.055  -2.253  1.00  0.00    -0.388 A  
HETATM    2  C5  SG8 A1201     -20.706  65.801  -1.735  1.00  0.00    -0.334 A  
HETATM    3  F1  SG8 A1201     -20.721  67.385  -3.496  1.00  0.00    -0.569 F  
HETATM    4  S1  SG8 A1201     -19.801  64.571  -2.576  1.00  0.00    -0.112 SA 
HETATM    5  C7  SG8 A1201     -19.828  63.528  -1.198  1.00  0.00    -0.445 A  
HETATM    6  F2  SG8 A1201     -22.071  66.015   1.591  1.00  0.00    -0.622 F  
HETATM    7  C8  SG8 A1201     -20.517  64.111  -0.122  1.00  0.00    -0.406 A  
HETATM    8 CL1  SG8 A1201     -20.788  63.301   1.381  1.00  0.00    -0.783 Cl 
HETATM    9  C2  SG8 A1201     -22.142  67.576  -0.156  1.00  0.00    -0.495 A  
HETATM   10  C6  SG8 A1201     -21.033  65.413  -0.426  1.00  0.00    -0.528 A  
HETATM   11  C3  SG8 A1201     -21.797  67.927  -1.477  1.00  0.00    -0.516 A  
HETATM   12  C1  SG8 A1201     -21.751  66.336   0.353  1.00  0.00    -0.442 A  
ENDROOT
BRANCH   5  13
HETATM   13  C9  SG8 A1201     -19.295  62.092  -1.133  1.00  0.00    -0.477 C  
HETATM   14  O1  SG8 A1201     -18.099  62.005  -1.091  1.00  0.00    -0.580 OA 
HETATM   15  N1  SG8 A1201     -20.158  60.873  -1.125  1.00  0.00    -0.356 N  
BRANCH  15  16
HETATM   16  C11 SG8 A1201     -19.539  59.498  -0.974  1.00  0.00    -0.377 C  
HETATM   17  C22 SG8 A1201     -19.573  58.580  -2.211  1.00  0.00    -0.551 C  
HETATM   18  C18 SG8 A1201     -19.811  58.835   0.435  1.00  0.00    -0.555 C  
HETATM   19  C20 SG8 A1201     -19.865  56.531  -0.733  1.00  0.00    -0.444 C  
HETATM   20  C21 SG8 A1201     -19.153  57.146  -1.937  1.00  0.00    -0.537 C  
HETATM   21  C19 SG8 A1201     -19.524  57.339   0.528  1.00  0.00    -0.428 C  
BRANCH  19  22
HETATM   22  N2  SG8 A1201     -19.761  55.085  -0.465  1.00  0.00    -0.603 NA 
HETATM   23  H2  SG8 A1201     -19.210  54.897   0.373  1.00  0.00     0.000 HD 
HETATM   24  C23 SG8 A1201     -21.100  54.460  -0.388  1.00  0.00    -0.380 C  
ENDBRANCH  19  22
ENDBRANCH  15  16
BRANCH  15  25
HETATM   25  C10 SG8 A1201     -21.612  60.891  -1.192  1.00  0.00    -0.475 C  
BRANCH  25  26
HETATM   26  C12 SG8 A1201     -22.108  61.817  -2.369  1.00  0.00    -0.493 A  
HETATM   27  C17 SG8 A1201     -22.999  63.000  -2.027  1.00  0.00    -0.385 A  
HETATM   28  C15 SG8 A1201     -22.940  63.629  -4.443  1.00  0.00    -0.129 A  
HETATM   29  C13 SG8 A1201     -21.680  61.632  -3.672  1.00  0.00    -0.614 A  
HETATM   30  C14 SG8 A1201     -22.108  62.579  -4.769  1.00  0.00    -0.588 A  
HETATM   31  C16 SG8 A1201     -23.370  63.890  -3.006  1.00  0.00    -0.546 A  
BRANCH  31  32
HETATM   32  C28 SG8 A1201     -24.231  65.075  -2.643  1.00  0.00    -0.506 A  
HETATM   33  C24 SG8 A1201     -24.594  65.339  -1.228  1.00  0.00    -0.604 A  
HETATM   34  C25 SG8 A1201     -25.345  66.424  -0.894  1.00  0.00    -0.227 A  
HETATM   35  N3  SG8 A1201     -25.841  67.330  -1.970  1.00  0.00    -0.307 NA 
HETATM   36  C26 SG8 A1201     -25.517  67.115  -3.252  1.00  0.00    -0.376 A  
HETATM   37  C27 SG8 A1201     -24.672  65.933  -3.610  1.00  0.00    -0.615 A  
ENDBRANCH  31  32
ENDBRANCH  25  26
ENDBRANCH  15  25
ENDBRANCH   5  13
TORSDOF 6
ENDMDL
