MODEL        1
REMARK THIS MODEL IS IDENTICAL TO THE INPUT LIGAND AND NOT FROM DOCKING
REMARK 921   NORMALIZED FREE ENERGY PREDICTED BY IDOCK:  -10.72 KCAL/MOL
REMARK 922        TOTAL FREE ENERGY PREDICTED BY IDOCK:  -15.31 KCAL/MOL
REMARK 923 INTER-LIGAND FREE ENERGY PREDICTED BY IDOCK:  -14.48 KCAL/MOL
REMARK 924 INTRA-LIGAND FREE ENERGY PREDICTED BY IDOCK:   -0.83 KCAL/MOL
REMARK 927      BINDING AFFINITY PREDICTED BY RF-SCORE:    0.00 PKD
ROOT
HETATM    1  O2B 6AD A1201      16.181   1.025  59.445  1.00  0.00    -0.770 OA 
HETATM    2  PB  6AD A1201      16.569   0.984  57.870  1.00  0.00    -0.422 P  
HETATM    3  O3A 6AD A1201      15.481  -0.035  57.297  1.00  0.00    -0.443 OA 
HETATM    4  O1B 6AD A1201      16.571   2.339  57.263  1.00  0.00    -0.615 OA 
HETATM    5  O3B 6AD A1201      18.003   0.277  57.772  1.00  0.00    -0.429 OA 
ENDROOT
BRANCH   3   6
HETATM    6  PA  6AD A1201      15.599  -0.994  55.991  1.00  0.00    -0.368 P  
HETATM    7  O2A 6AD A1201      15.940  -2.388  56.356  1.00  0.00    -0.748 OA 
HETATM    8  O1A 6AD A1201      16.343  -0.306  54.904  1.00  0.00    -0.652 OA 
BRANCH   6   9
HETATM    9  O5' 6AD A1201      14.034  -1.053  55.675  1.00  0.00    -0.367 OA 
BRANCH   9  10
HETATM   10  C5' 6AD A1201      13.267   0.075  55.188  1.00  0.00    -0.319 C  
BRANCH  10  11
HETATM   11  C4' 6AD A1201      11.889  -0.406  54.659  1.00  0.00    -0.355 C  
HETATM   12  O4' 6AD A1201      12.011  -1.113  53.382  1.00  0.00    -0.522 OA 
HETATM   13  C1' 6AD A1201      11.687  -2.525  53.603  1.00  0.00    -0.458 C  
HETATM   14  H3' 6AD A1201       9.525  -0.370  55.938  1.00  0.00     0.000 HD 
HETATM   15  C2' 6AD A1201      11.582  -2.723  55.107  1.00  0.00    -0.312 C  
HETATM   16  O2' 6AD A1201      10.634  -3.727  55.422  1.00  0.00    -0.988 OA 
HETATM   17  C3' 6AD A1201      11.197  -1.374  55.631  1.00  0.00    -0.455 C  
HETATM   18  O3' 6AD A1201       9.769  -1.226  55.606  1.00  0.00    -0.450 OA 
HETATM   19  H2' 6AD A1201      10.568  -3.851  56.362  1.00  0.00     0.000 HD 
BRANCH  13  20
HETATM   20  N9  6AD A1201      12.703  -3.449  53.002  1.00  0.00    -0.303 NA 
HETATM   21  C4  6AD A1201      12.518  -4.136  51.880  1.00  0.00    -0.372 A  
HETATM   22  N7  6AD A1201      14.434  -4.713  52.697  1.00  0.00    -0.660 NA 
HETATM   23  C6  6AD A1201      13.688  -5.642  50.532  1.00  0.00    -0.506 A  
HETATM   24  C5  6AD A1201      13.612  -4.895  51.659  1.00  0.00    -0.518 A  
HETATM   25  N6  6AD A1201      14.761  -6.416  50.348  1.00  0.00    -0.712 NA 
HETATM   26  C8  6AD A1201      13.886  -3.813  53.502  1.00  0.00    -0.271 A  
HETATM   27  N1  6AD A1201      12.677  -5.636  49.644  1.00  0.00    -0.322 NA 
HETATM   28  H61 6AD A1201      14.818  -6.979  49.499  1.00  0.00     0.000 HD 
HETATM   29  H62 6AD A1201      15.508  -6.444  51.042  1.00  0.00     0.000 HD 
HETATM   30  C2  6AD A1201      11.566  -4.903  49.892  1.00  0.00    -0.375 A  
HETATM   31  N3  6AD A1201      11.505  -4.135  50.996  1.00  0.00    -0.546 NA 
BRANCH  30  32
HETATM   32  S1  6AD A1201      10.191  -4.864  48.788  1.00  0.00    -0.612 SA 
HETATM   33  C11 6AD A1201      10.293  -6.409  47.909  1.00  0.00    -0.616 C  
ENDBRANCH  30  32
ENDBRANCH  13  20
ENDBRANCH  10  11
ENDBRANCH   9  10
ENDBRANCH   6   9
ENDBRANCH   3   6
TORSDOF 6
ENDMDL
