MODEL        1
REMARK THIS MODEL IS IDENTICAL TO THE INPUT LIGAND AND NOT FROM DOCKING
REMARK 921   NORMALIZED FREE ENERGY PREDICTED BY IDOCK:   -9.78 KCAL/MOL
REMARK 922        TOTAL FREE ENERGY PREDICTED BY IDOCK:  -13.65 KCAL/MOL
REMARK 923 INTER-LIGAND FREE ENERGY PREDICTED BY IDOCK:  -13.21 KCAL/MOL
REMARK 924 INTRA-LIGAND FREE ENERGY PREDICTED BY IDOCK:   -0.44 KCAL/MOL
REMARK 927      BINDING AFFINITY PREDICTED BY RF-SCORE:    0.00 PKD
ROOT
HETATM    1  O17 CAU A1401       7.575 -29.906 -59.326  1.00  0.00    -1.049 OA 
HETATM    2  H17 CAU A1401       6.981 -29.775 -58.596  1.00  0.00     0.000 HD 
HETATM    3  C16 CAU A1401       7.125 -31.007 -60.122  1.00  0.00    -0.532 C  
ENDROOT
BRANCH   3   4
HETATM    4  C15 CAU A1401       7.078 -32.278 -59.270  1.00  0.00    -0.424 C  
BRANCH   4   5
HETATM    5  O14 CAU A1401       6.644 -33.373 -60.084  1.00  0.00    -0.410 OA 
BRANCH   5   6
HETATM    6  C13 CAU A1401       6.491 -34.530 -59.375  1.00  0.00    -0.498 A  
HETATM    7  C5  CAU A1401       5.503 -34.905 -62.326  1.00  0.00    -0.646 A  
HETATM    8  C12 CAU A1401       6.858 -34.620 -58.038  1.00  0.00    -0.886 A  
HETATM    9  C6  CAU A1401       5.010 -35.314 -63.558  1.00  0.00    -0.598 A  
HETATM   10  H7  CAU A1401       5.028 -38.575 -60.042  1.00  0.00     0.000 HD 
HETATM   11  C11 CAU A1401       6.672 -35.828 -57.387  1.00  0.00    -0.779 A  
HETATM   12  C10 CAU A1401       6.129 -36.884 -58.107  1.00  0.00    -0.665 A  
HETATM   13  C8  CAU A1401       5.796 -36.739 -59.388  1.00  0.00    -0.428 A  
HETATM   14  C9  CAU A1401       5.971 -35.578 -60.026  1.00  0.00    -0.671 A  
HETATM   15  C4  CAU A1401       5.548 -35.741 -61.286  1.00  0.00    -0.594 A  
HETATM   16  C3  CAU A1401       5.115 -36.997 -61.417  1.00  0.00    -0.412 A  
HETATM   17  N7  CAU A1401       5.271 -37.605 -60.247  1.00  0.00    -0.722 NA 
HETATM   18  C2  CAU A1401       4.632 -37.447 -62.575  1.00  0.00    -0.566 A  
HETATM   19  C1  CAU A1401       4.563 -36.619 -63.686  1.00  0.00    -0.660 A  
ENDBRANCH   5   6
ENDBRANCH   4   5
ENDBRANCH   3   4
BRANCH   3  20
HETATM   20  C18 CAU A1401       8.083 -31.218 -61.298  1.00  0.00    -0.347 C  
BRANCH  20  21
HETATM   21  N19 CAU A1401       8.217 -29.992 -62.099  1.00  0.00    -0.739 NA 
HETATM   22  H19 CAU A1401       8.738 -29.268 -61.604  1.00  0.00     0.000 HD 
BRANCH  21  23
HETATM   23  C20 CAU A1401       8.815 -30.303 -63.406  1.00  0.00    -0.373 C  
HETATM   24  C21 CAU A1401      10.198 -30.940 -63.249  1.00  0.00    -0.663 C  
HETATM   25  C22 CAU A1401       8.933 -29.041 -64.262  1.00  0.00    -0.541 C  
ENDBRANCH  21  23
ENDBRANCH  20  21
ENDBRANCH   3  20
TORSDOF 6
ENDMDL
