REMARK  6 active torsions:
REMARK  status: ('A' for Active; 'I' for Inactive)
REMARK    1  A    between atoms: C03_7  and  C02_15
REMARK    2  A    between atoms: C02_15  and  O17_17
REMARK    3  A    between atoms: O17_17  and  C18_18
REMARK    4  A    between atoms: C19_19  and  C31_24
REMARK    5  A    between atoms: N20_20  and  C24_31
REMARK    6  A    between atoms: C24_31  and  C25_32
ROOT
HETATM    1  C13 GBQ A1501       4.538  -1.327  35.159  1.00  0.00     0.417 C
HETATM    2  F16 GBQ A1501       4.597  -0.869  36.436  1.00  0.00    -0.166 F
HETATM    3  F14 GBQ A1501       4.228  -2.638  35.342  1.00  0.00    -0.166 F
HETATM    4  F15 GBQ A1501       5.858  -1.402  34.851  1.00  0.00    -0.166 F
HETATM    5  C05 GBQ A1501       3.642  -0.536  34.174  1.00  0.00     0.056 A
HETATM    6  C04 GBQ A1501       4.139  -0.245  32.888  1.00  0.00     0.018 A
HETATM    7  C03 GBQ A1501       3.372   0.471  31.950  1.00  0.00    -0.018 A
HETATM    8  F10 GBQ A1501      -0.032   2.409  34.173  1.00  0.00    -0.166 F
HETATM    9  C08 GBQ A1501       2.077   0.892  32.339  1.00  0.00     0.018 A
HETATM   10  C07 GBQ A1501       1.576   0.599  33.628  1.00  0.00     0.056 A
HETATM   11  F12 GBQ A1501      -0.846   0.731  33.200  1.00  0.00    -0.166 F
HETATM   12  C09 GBQ A1501       0.163   1.067  34.035  1.00  0.00     0.417 C
HETATM   13  F11 GBQ A1501      -0.305   0.603  35.224  1.00  0.00    -0.166 F
HETATM   14  C06 GBQ A1501       2.358  -0.118  34.558  1.00  0.00     0.024 A
ENDROOT
BRANCH   7  15
HETATM   15  C02 GBQ A1501       3.928   0.809  30.515  1.00  0.00     0.148 C
HETATM   16  C01 GBQ A1501       4.771   2.111  30.585  1.00  0.00     0.043 C
BRANCH  15  17
HETATM   17  O17 GBQ A1501       4.782  -0.233  30.017  1.00  0.00    -0.342 OA
BRANCH  17  18
HETATM   18  C18 GBQ A1501       4.213  -1.283  29.250  1.00  0.00     0.272 C
HETATM   19  C19 GBQ A1501       5.253  -2.499  29.110  1.00  0.00     0.144 C
HETATM   20  N20 GBQ A1501       6.403  -2.023  28.247  1.00  0.00    -0.282 NA
HETATM   21  O23 GBQ A1501       3.900  -0.735  27.985  1.00  0.00    -0.348 OA
HETATM   22  C22 GBQ A1501       4.987  -0.275  27.202  1.00  0.00     0.178 C
HETATM   23  C21 GBQ A1501       5.940  -1.423  26.965  1.00  0.00     0.113 C
BRANCH  19  24
HETATM   24  C31 GBQ A1501       5.874  -3.030  30.445  1.00  0.00    -0.025 A
HETATM   25  C36 GBQ A1501       6.964  -2.360  31.075  1.00  0.00     0.008 A
HETATM   26  F37 GBQ A1501       7.542  -4.431  34.050  1.00  0.00    -0.205 F
HETATM   27  C33 GBQ A1501       5.926  -4.666  32.307  1.00  0.00     0.038 A
HETATM   28  C32 GBQ A1501       5.375  -4.182  31.100  1.00  0.00     0.008 A
HETATM   29  C35 GBQ A1501       7.537  -2.821  32.279  1.00  0.00     0.038 A
HETATM   30  C34 GBQ A1501       7.001  -3.975  32.880  1.00  0.00     0.123 A
ENDBRANCH  19  24
BRANCH  20  31
HETATM   31  C24 GBQ A1501       7.260  -3.132  27.839  1.00  0.00     0.155 C
BRANCH  31  32
HETATM   32  C25 GBQ A1501       8.433  -2.646  26.985  1.00  0.00     0.122 C
HETATM   33  N26 GBQ A1501       9.396  -1.767  27.445  1.00  0.00    -0.181 NA
HETATM   34  O28 GBQ A1501      11.318  -0.811  26.381  1.00  0.00    -0.241 OA
HETATM   35  N29 GBQ A1501       9.876  -2.282  25.249  1.00  0.00    -0.136 NA
HETATM   36  C27 GBQ A1501      10.323  -1.521  26.386  1.00  0.00     0.381 C
HETATM   37  N30 GBQ A1501       8.695  -2.974  25.643  1.00  0.00    -0.162 NA
HETATM   38  H30 GBQ A1501       7.903  -2.788  25.028  1.00  0.00     0.156 HD
ENDBRANCH  31  32
ENDBRANCH  20  31
ENDBRANCH  17  18
ENDBRANCH  15  17
ENDBRANCH   7  15
TORSDOF 6
