REMARK  2 active torsions:
REMARK  status: ('A' for Active; 'I' for Inactive)
REMARK    1  A    between atoms: C02_4  and  O12_13
REMARK    2  A    between atoms: O12_13  and  C13_14
ROOT
HETATM    1  C10 3C0 A 501     187.885  24.340 525.974  1.00  0.00     0.174 C
HETATM    2  O11 3C0 A 501     187.385  23.423 524.996  1.00  0.00    -0.394 OA
HETATM    3  C03 3C0 A 501     187.395  25.748 525.637  1.00  0.00     0.140 C
HETATM    4  C02 3C0 A 501     185.871  25.746 525.504  1.00  0.00     0.272 C
HETATM    5  C04 3C0 A 501     187.780  26.646 526.627  1.00  0.00    -0.033 A
HETATM    6  H11 3C0 A 501     187.690  22.548 525.205  1.00  0.00     0.209 HD
HETATM    7  O01 3C0 A 501     185.203  24.792 525.901  1.00  0.00    -0.264 OA
HETATM    8  C05 3C0 A 501     188.343  27.866 526.268  1.00  0.00     0.004 A
HETATM    9  C07 3C0 A 501     188.552  28.456 528.593  1.00  0.00     0.000 A
HETATM   10  C09 3C0 A 501     187.601  26.331 527.970  1.00  0.00     0.004 A
HETATM   11  C06 3C0 A 501     188.729  28.771 527.250  1.00  0.00     0.000 A
HETATM   12  C08 3C0 A 501     187.988  27.237 528.952  1.00  0.00     0.000 A
ENDROOT
BRANCH   4  13
HETATM   13  O12 3C0 A 501     185.370  26.858 524.900  1.00  0.00    -0.311 OA
BRANCH  13  14
HETATM   14  C13 3C0 A 501     183.918  26.952 524.854  1.00  0.00     0.132 C
HETATM   15  C22 3C0 A 501     183.227  28.618 526.686  1.00  0.00     0.222 C
HETATM   16  C17 3C0 A 501     184.674  29.179 526.642  1.00  0.00     0.180 C
HETATM   17  C23 3C0 A 501     183.255  27.146 526.237  1.00  0.00     0.068 C
HETATM   18  C16 3C0 A 501     184.796  29.771 525.261  1.00  0.00     0.180 C
HETATM   19  O18 3C0 A 501     184.918  30.608 526.458  1.00  0.00    -0.364 OA
HETATM   20  C15 3C0 A 501     183.412  29.472 524.621  1.00  0.00     0.222 C
HETATM   21  C14 3C0 A 501     183.459  28.093 523.919  1.00  0.00     0.068 C
HETATM   22  N19 3C0 A 501     182.466  29.465 525.749  1.00  0.00    -0.044 N
HETATM   23  C21 3C0 A 501     181.148  28.921 525.374  1.00  0.00     0.267 C
HETATM   24  C20 3C0 A 501     182.141  30.804 526.283  1.00  0.00     0.267 C
ENDBRANCH  13  14
ENDBRANCH   4  13
TORSDOF 2
