REMARK  2 active torsions:
REMARK  status: ('A' for Active; 'I' for Inactive)
REMARK    1  A    between atoms: CBE_17  and  OAT_26
REMARK    2  A    between atoms: CAY_20  and  CAV_28
ROOT
HETATM    1  CAP 4VO A 401       2.367  15.479 -57.772  1.00  0.00     0.030 C
HETATM    2  CAO 4VO A 401       1.926  15.561 -56.292  1.00  0.00     0.085 C
HETATM    3  NBB 4VO A 401       1.131  16.797 -56.074  1.00  0.00    -0.301 NA
HETATM    4  CAZ 4VO A 401      -0.092  16.803 -56.917  1.00  0.00     0.071 C
HETATM    5  CAB 4VO A 401       0.786  16.930 -54.635  1.00  0.00     0.105 C
HETATM    6  CAQ 4VO A 401      -1.026  15.576 -56.678  1.00  0.00     0.055 C
HETATM    7  CAW 4VO A 401      -0.724  14.452 -57.486  1.00  0.00    -0.042 A
HETATM    8  CAM 4VO A 401      -1.498  13.308 -57.318  1.00  0.00     0.006 A
HETATM    9  CAL 4VO A 401      -1.271  12.157 -58.072  1.00  0.00     0.033 A
HETATM   10  CAU 4VO A 401      -0.253  12.153 -59.015  1.00  0.00     0.073 A
HETATM   11  OAD 4VO A 401      -0.015  11.030 -59.759  1.00  0.00    -0.360 OA
HETATM   12  CAN 4VO A 401       0.522  13.294 -59.189  1.00  0.00     0.037 A
HETATM   13  CAX 4VO A 401       0.299  14.464 -58.455  1.00  0.00    -0.033 A
HETATM   14  HAD 4VO A 401      -0.545  10.250 -59.640  1.00  0.00     0.217 HD
HETATM   15  CBF 4VO A 401       1.130  15.605 -58.699  1.00  0.00     0.033 C
HETATM   16  CBA 4VO A 401       1.563  15.719 -60.219  1.00  0.00     0.153 C
HETATM   17  CBE 4VO A 401       0.706  16.804 -60.923  1.00  0.00     0.121 C
HETATM   18  NAS 4VO A 401       2.911  16.322 -60.505  1.00  0.00    -0.280 NA
HETATM   19  CAF 4VO A 401      -0.663  16.745 -60.593  1.00  0.00     0.007 C
HETATM   20  CAY 4VO A 401       2.812  17.752 -60.186  1.00  0.00     0.052 C
HETATM   21  CAE 4VO A 401      -0.898  16.796 -59.219  1.00  0.00    -0.019 C
HETATM   22  CBD 4VO A 401       0.250  16.841 -58.401  1.00  0.00     0.017 C
HETATM   23  CAR 4VO A 401       0.902  18.153 -58.794  1.00  0.00     0.029 C
HETATM   24  CBC 4VO A 401       1.296  18.067 -60.278  1.00  0.00     0.046 C
HETATM   25  CAC 4VO A 401       0.833  19.327 -61.026  1.00  0.00     0.021 C
ENDROOT
BRANCH  17  26
HETATM   26  OAT 4VO A 401       0.927  16.799 -62.358  1.00  0.00    -0.369 OA
HETATM   27  CAA 4VO A 401       0.532  15.553 -62.946  1.00  0.00     0.195 C
ENDBRANCH  17  26
BRANCH  20  28
HETATM   28  CAV 4VO A 401       3.726  18.839 -60.183  1.00  0.00    -0.004 A
HETATM   29  CAJ 4VO A 401       4.028  19.696 -61.223  1.00  0.00     0.010 A
HETATM   30  CAH 4VO A 401       4.929  20.735 -61.003  1.00  0.00     0.001 A
HETATM   31  CAG 4VO A 401       5.538  20.923 -59.767  1.00  0.00     0.000 A
HETATM   32  CAI 4VO A 401       5.239  20.064 -58.718  1.00  0.00     0.001 A
HETATM   33  CAK 4VO A 401       4.337  19.032 -58.938  1.00  0.00     0.010 A
ENDBRANCH  20  28
TORSDOF 2
