MODEL        1
REMARK THIS MODEL IS IDENTICAL TO THE INPUT LIGAND AND NOT FROM DOCKING
REMARK 921   NORMALIZED FREE ENERGY PREDICTED BY IDOCK:   -9.11 KCAL/MOL
REMARK 922        TOTAL FREE ENERGY PREDICTED BY IDOCK:  -11.62 KCAL/MOL
REMARK 923 INTER-LIGAND FREE ENERGY PREDICTED BY IDOCK:  -11.24 KCAL/MOL
REMARK 924 INTRA-LIGAND FREE ENERGY PREDICTED BY IDOCK:   -0.38 KCAL/MOL
REMARK 927      BINDING AFFINITY PREDICTED BY RF-SCORE:    0.00 PKD
ROOT
HETATM    1  C1  ZOT A3001      14.011  -1.942  54.562  1.00  0.00    -0.362 A  
HETATM    2  C14 ZOT A3001      14.787  -1.526  53.490  1.00  0.00    -0.577 A  
HETATM    3 CL1  ZOT A3001      12.507  -2.699  54.307  1.00  0.00    -0.695 Cl 
HETATM    4  C13 ZOT A3001      16.009  -0.908  53.724  1.00  0.00    -0.597 A  
HETATM    5  C12 ZOT A3001      16.464  -0.729  55.027  1.00  0.00    -0.454 A  
HETATM    6  C3  ZOT A3001      15.665  -1.120  56.095  1.00  0.00    -0.687 A  
HETATM    7  C2  ZOT A3001      14.447  -1.737  55.858  1.00  0.00    -0.622 A  
HETATM    8  C4  ZOT A3001      15.904  -1.053  57.463  1.00  0.00    -0.359 C  
HETATM    9  C9  ZOT A3001      17.141  -1.105  58.105  1.00  0.00    -0.834 C  
HETATM   10  C16 ZOT A3001      21.060  -1.668  56.817  1.00  0.00    -0.774 A  
HETATM   11  C10 ZOT A3001      18.413  -1.198  57.550  1.00  0.00    -0.501 A  
HETATM   12  C18 ZOT A3001      19.268  -1.878  58.411  1.00  0.00    -0.499 A  
HETATM   13  C11 ZOT A3001      18.874  -0.783  56.307  1.00  0.00    -0.277 A  
HETATM   14  C17 ZOT A3001      20.591  -2.112  58.050  1.00  0.00    -1.043 A  
HETATM   15  C15 ZOT A3001      20.203  -0.997  55.951  1.00  0.00    -0.658 A  
HETATM   16  S1  ZOT A3001      18.023   0.093  55.046  1.00  0.00    -0.437 SA 
ENDROOT
BRANCH   8  17
HETATM   17  O1  ZOT A3001      14.765  -1.024  58.210  1.00  0.00    -0.129 OA 
BRANCH  17  18
HETATM   18  C5  ZOT A3001      14.860  -0.042  59.240  1.00  0.00    -0.413 C  
BRANCH  18  19
HETATM   19  C6  ZOT A3001      13.602   0.825  59.203  1.00  0.00    -0.367 C  
BRANCH  19  20
HETATM   20  N1  ZOT A3001      13.079   1.034  60.557  1.00  0.00    -0.152 NA 
HETATM   21  C7  ZOT A3001      11.854   1.846  60.484  1.00  0.00    -0.418 C  
HETATM   22  C8  ZOT A3001      12.796  -0.278  61.163  1.00  0.00    -0.389 C  
ENDBRANCH  19  20
ENDBRANCH  18  19
ENDBRANCH  17  18
ENDBRANCH   8  17
TORSDOF 4
ENDMDL
