MODEL        1
REMARK THIS MODEL IS IDENTICAL TO THE INPUT LIGAND AND NOT FROM DOCKING
REMARK 921   NORMALIZED FREE ENERGY PREDICTED BY IDOCK:  -10.28 KCAL/MOL
REMARK 922        TOTAL FREE ENERGY PREDICTED BY IDOCK:  -12.02 KCAL/MOL
REMARK 923 INTER-LIGAND FREE ENERGY PREDICTED BY IDOCK:  -11.48 KCAL/MOL
REMARK 924 INTRA-LIGAND FREE ENERGY PREDICTED BY IDOCK:   -0.54 KCAL/MOL
REMARK 927      BINDING AFFINITY PREDICTED BY RF-SCORE:    0.00 PKD
ROOT
HETATM    1  C10 3C0 A 501     187.885  24.340 525.974  1.00  0.00    -0.454 C  
HETATM    2  O11 3C0 A 501     187.385  23.423 524.996  1.00  0.00     0.046 OA 
HETATM    3  C03 3C0 A 501     187.395  25.748 525.637  1.00  0.00    -0.459 C  
HETATM    4  C02 3C0 A 501     185.871  25.746 525.504  1.00  0.00    -0.456 C  
HETATM    5  C04 3C0 A 501     187.780  26.646 526.627  1.00  0.00    -0.509 A  
HETATM    6  H11 3C0 A 501     187.690  22.548 525.205  1.00  0.00     0.000 HD 
HETATM    7  O01 3C0 A 501     185.203  24.792 525.901  1.00  0.00    -0.502 OA 
HETATM    8  C05 3C0 A 501     188.343  27.866 526.268  1.00  0.00    -0.694 A  
HETATM    9  C07 3C0 A 501     188.552  28.456 528.593  1.00  0.00    -0.693 A  
HETATM   10  C09 3C0 A 501     187.601  26.331 527.970  1.00  0.00    -0.642 A  
HETATM   11  C06 3C0 A 501     188.729  28.771 527.250  1.00  0.00    -0.679 A  
HETATM   12  C08 3C0 A 501     187.988  27.237 528.952  1.00  0.00    -0.698 A  
ENDROOT
BRANCH   4  13
HETATM   13  O12 3C0 A 501     185.370  26.858 524.900  1.00  0.00    -0.395 OA 
BRANCH  13  14
HETATM   14  C13 3C0 A 501     183.918  26.952 524.854  1.00  0.00    -0.343 C  
HETATM   15  C22 3C0 A 501     183.227  28.618 526.686  1.00  0.00    -0.478 C  
HETATM   16  C17 3C0 A 501     184.674  29.179 526.642  1.00  0.00    -0.288 C  
HETATM   17  C23 3C0 A 501     183.255  27.146 526.237  1.00  0.00    -0.648 C  
HETATM   18  C16 3C0 A 501     184.796  29.771 525.261  1.00  0.00    -0.444 C  
HETATM   19  O18 3C0 A 501     184.918  30.608 526.458  1.00  0.00    -0.695 OA 
HETATM   20  C15 3C0 A 501     183.412  29.472 524.621  1.00  0.00    -0.399 C  
HETATM   21  C14 3C0 A 501     183.459  28.093 523.919  1.00  0.00    -0.752 C  
HETATM   22  N19 3C0 A 501     182.466  29.465 525.749  1.00  0.00    -0.384 N  
HETATM   23  C21 3C0 A 501     181.148  28.921 525.374  1.00  0.00    -0.508 C  
HETATM   24  C20 3C0 A 501     182.141  30.804 526.283  1.00  0.00    -0.405 C  
ENDBRANCH  13  14
ENDBRANCH   4  13
TORSDOF 2
ENDMDL
