REMARK  4 active torsions:
REMARK  status: ('A' for Active; 'I' for Inactive)
REMARK    1  A    between atoms: C21_8  and  C4_11
REMARK    2  A    between atoms: C4_11  and  C5_13
REMARK    3  A    between atoms: C15_22  and  C16_26
REMARK    4  A    between atoms: C16_26  and  N2_27
ROOT
HETATM    1  C1  LIG R 431     100.816 110.906 128.437  1.00  0.00     0.001 A
HETATM    2  C2  LIG R 431     102.062 111.910 128.412  1.00  0.00     0.001 A
HETATM    3  C3  LIG R 431     102.900 111.924 127.350  1.00  0.00     0.008 A
HETATM    4  C25 LIG R 431     102.668 111.001 126.204  1.00  0.00    -0.017 A
HETATM    5  C24 LIG R 431     103.533 110.981 125.197  1.00  0.00     0.008 A
HETATM    6  C23 LIG R 431     103.311 110.034 124.035  1.00  0.00     0.001 A
HETATM    7  C22 LIG R 431     102.315 109.215 124.050  1.00  0.00     0.012 A
HETATM    8  C21 LIG R 431     101.361 109.203 125.224  1.00  0.00     0.030 A
HETATM    9  C27 LIG R 431     100.623 110.036 127.419  1.00  0.00     0.009 A
HETATM   10  C26 LIG R 431     101.536 110.054 126.235  1.00  0.00    -0.007 A
ENDROOT
BRANCH   8  11
HETATM   11  C4  LIG R 431     100.171 108.248 125.187  1.00  0.00     0.196 C
HETATM   12  O1  LIG R 431     100.131 107.351 125.957  1.00  0.00    -0.287 OA
BRANCH  11  13
HETATM   13  C5  LIG R 431      99.030 108.419 124.181  1.00  0.00     0.045 A
HETATM   14  C9  LIG R 431      98.215 107.296 123.706  1.00  0.00     0.007 A
HETATM   15  C8  LIG R 431      97.237 107.939 122.756  1.00  0.00     0.057 A
HETATM   16  C13 LIG R 431      96.366 107.313 122.088  1.00  0.00     0.076 C
HETATM   17  O2  LIG R 431      95.518 108.025 121.236  1.00  0.00    -0.345 OA
HETATM   18  C12 LIG R 431      96.316 105.805 122.303  1.00  0.00     0.089 C
HETATM   19  C14 LIG R 431      95.909 109.330 120.869  1.00  0.00     0.188 C
HETATM   20  C11 LIG R 431      97.253 105.195 123.181  1.00  0.00    -0.019 C
HETATM   21  C10 LIG R 431      98.271 105.920 123.867  1.00  0.00     0.006 C
HETATM   22  C15 LIG R 431      96.706 110.137 121.906  1.00  0.00     0.107 C
HETATM   23  N1  LIG R 431      97.505 109.273 122.744  1.00  0.00    -0.239 NA
HETATM   24  C7  LIG R 431      99.094 111.040 123.783  1.00  0.00     0.058 C
HETATM   25  C6  LIG R 431      98.549 109.622 123.586  1.00  0.00     0.009 A
BRANCH  22  26
HETATM   26  C16 LIG R 431      95.843 111.056 122.766  1.00  0.00     0.106 C
BRANCH  26  27
HETATM   27  N2  LIG R 431      94.834 111.764 122.004  1.00  0.00    -0.296 NA
HETATM   28  C20 LIG R 431      93.534 111.647 122.502  1.00  0.00     0.112 C
HETATM   29  C19 LIG R 431      92.456 112.437 121.782  1.00  0.00     0.175 C
HETATM   30  O3  LIG R 431      92.879 113.749 121.316  1.00  0.00    -0.377 OA
HETATM   31  C18 LIG R 431      94.190 113.702 120.694  1.00  0.00     0.175 C
HETATM   32  C17 LIG R 431      95.200 113.045 121.609  1.00  0.00     0.112 C
ENDBRANCH  26  27
ENDBRANCH  22  26
ENDBRANCH  11  13
ENDBRANCH   8  11
TORSDOF 4
