REMARK  6 active torsions:
REMARK  status: ('A' for Active; 'I' for Inactive)
REMARK    1  A    between atoms: O3A_3  and  PA_6
REMARK    2  A    between atoms: PA_6  and  O5'_9
REMARK    3  A    between atoms: O5'_9  and  C5'_10
REMARK    4  A    between atoms: C5'_10  and  C4'_11
REMARK    5  A    between atoms: C1'_13  and  N9_20
REMARK    6  A    between atoms: C2_30  and  S1_32
ROOT
HETATM    1  O2B 6AD A1201      16.181   1.025  59.445  1.00  0.00    -0.514 OA
HETATM    2  PB  6AD A1201      16.569   0.984  57.870  1.00  0.00    -0.221 P
HETATM    3  O3A 6AD A1201      15.481  -0.035  57.297  1.00  0.00    -0.245 OA
HETATM    4  O1B 6AD A1201      16.571   2.339  57.263  1.00  0.00    -0.514 OA
HETATM    5  O3B 6AD A1201      18.003   0.277  57.772  1.00  0.00    -0.514 OA
ENDROOT
BRANCH   3   6
HETATM    6  PA  6AD A1201      15.599  -0.994  55.991  1.00  0.00     0.088 P
HETATM    7  O2A 6AD A1201      15.940  -2.388  56.356  1.00  0.00    -0.537 OA
HETATM    8  O1A 6AD A1201      16.343  -0.306  54.904  1.00  0.00    -0.537 OA
BRANCH   6   9
HETATM    9  O5' 6AD A1201      14.034  -1.053  55.675  1.00  0.00    -0.230 OA
BRANCH   9  10
HETATM   10  C5' 6AD A1201      13.267   0.075  55.188  1.00  0.00     0.227 C
BRANCH  10  11
HETATM   11  C4' 6AD A1201      11.889  -0.406  54.659  1.00  0.00     0.179 C
HETATM   12  O4' 6AD A1201      12.011  -1.113  53.382  1.00  0.00    -0.350 OA
HETATM   13  C1' 6AD A1201      11.687  -2.525  53.603  1.00  0.00     0.231 C
HETATM   14  H3' 6AD A1201       9.525  -0.370  55.938  1.00  0.00     0.210 HD
HETATM   15  C2' 6AD A1201      11.582  -2.723  55.107  1.00  0.00     0.190 C
HETATM   16  O2' 6AD A1201      10.634  -3.727  55.422  1.00  0.00    -0.385 OA
HETATM   17  C3' 6AD A1201      11.197  -1.374  55.631  1.00  0.00     0.178 C
HETATM   18  O3' 6AD A1201       9.769  -1.226  55.606  1.00  0.00    -0.386 OA
HETATM   19  H2' 6AD A1201      10.568  -3.851  56.362  1.00  0.00     0.210 HD
BRANCH  13  20
HETATM   20  N9  6AD A1201      12.703  -3.449  53.002  1.00  0.00    -0.187 NA
HETATM   21  C4  6AD A1201      12.518  -4.136  51.880  1.00  0.00     0.148 A
HETATM   22  N7  6AD A1201      14.434  -4.713  52.697  1.00  0.00    -0.237 NA
HETATM   23  C6  6AD A1201      13.688  -5.642  50.532  1.00  0.00     0.136 A
HETATM   24  C5  6AD A1201      13.612  -4.895  51.659  1.00  0.00     0.138 A
HETATM   25  N6  6AD A1201      14.761  -6.416  50.348  1.00  0.00    -0.285 NA
HETATM   26  C8  6AD A1201      13.886  -3.813  53.502  1.00  0.00     0.177 A
HETATM   27  N1  6AD A1201      12.677  -5.636  49.644  1.00  0.00    -0.208 NA
HETATM   28  H61 6AD A1201      14.818  -6.979  49.499  1.00  0.00     0.125 HD
HETATM   29  H62 6AD A1201      15.508  -6.444  51.042  1.00  0.00     0.125 HD
HETATM   30  C2  6AD A1201      11.566  -4.903  49.892  1.00  0.00     0.191 A
HETATM   31  N3  6AD A1201      11.505  -4.135  50.996  1.00  0.00    -0.208 NA
BRANCH  30  32
HETATM   32  S1  6AD A1201      10.191  -4.864  48.788  1.00  0.00    -0.089 SA
HETATM   33  C11 6AD A1201      10.293  -6.409  47.909  1.00  0.00     0.093 C
ENDBRANCH  30  32
ENDBRANCH  13  20
ENDBRANCH  10  11
ENDBRANCH   9  10
ENDBRANCH   6   9
ENDBRANCH   3   6
TORSDOF 6
