REMARK  5 active torsions:
REMARK  status: ('A' for Active; 'I' for Inactive)
REMARK    1  A    between atoms: C7_8  and  C8_9
REMARK    2  A    between atoms: C8_9  and  C9_10
REMARK    3  A    between atoms: C9_10  and  N10_11
REMARK    4  A    between atoms: N10_11  and  C11_13
REMARK    5  A    between atoms: C20_21  and  C21_25
ROOT
HETATM    1  C1  ZMA A1201      21.936 167.102  15.154  1.00  0.00     0.006 A
HETATM    2  C2  ZMA A1201      21.717 165.734  15.262  1.00  0.00     0.033 A
HETATM    3  C3  ZMA A1201      20.509 165.264  15.764  1.00  0.00     0.073 A
HETATM    4  O4  ZMA A1201      20.296 163.923  15.869  1.00  0.00    -0.360 OA
HETATM    5  C5  ZMA A1201      19.520 166.160  16.159  1.00  0.00     0.033 A
HETATM    6  C6  ZMA A1201      19.739 167.530  16.051  1.00  0.00     0.006 A
HETATM    7  H4  ZMA A1201      19.470 163.602  16.212  1.00  0.00     0.217 HD
HETATM    8  C7  ZMA A1201      20.947 167.998  15.544  1.00  0.00    -0.046 A
ENDROOT
BRANCH   8   9
HETATM    9  C8  ZMA A1201      21.205 169.482  15.436  1.00  0.00     0.050 C
BRANCH   9  10
HETATM   10  C9  ZMA A1201      22.138 169.849  16.588  1.00  0.00     0.094 C
BRANCH  10  11
HETATM   11  N10 ZMA A1201      22.477 171.260  16.640  1.00  0.00    -0.256 NA
HETATM   12  H10 ZMA A1201      23.337 171.594  16.206  1.00  0.00     0.131 HD
BRANCH  11  13
HETATM   13  C11 ZMA A1201      21.653 172.130  17.263  1.00  0.00     0.207 C
HETATM   14  N13 ZMA A1201      20.462 171.694  17.744  1.00  0.00    -0.192 NA
HETATM   15  C14 ZMA A1201      19.617 172.542  18.371  1.00  0.00     0.184 C
HETATM   16  N16 ZMA A1201      19.981 173.816  18.508  1.00  0.00    -0.072 NA
HETATM   17  N15 ZMA A1201      18.427 172.113  18.852  1.00  0.00    -0.275 NA
HETATM   18  N17 ZMA A1201      19.221 174.801  19.127  1.00  0.00    -0.161 NA
HETATM   19 2H15 ZMA A1201      18.164 171.134  18.740  1.00  0.00     0.126 HD
HETATM   20 1H15 ZMA A1201      17.789 172.753  19.325  1.00  0.00     0.126 HD
HETATM   21  C20 ZMA A1201      20.076 175.833  18.961  1.00  0.00     0.201 A
HETATM   22  N19 ZMA A1201      21.244 175.566  18.316  1.00  0.00    -0.192 NA
HETATM   23  N12 ZMA A1201      22.014 173.428  17.407  1.00  0.00    -0.185 NA
HETATM   24  C18 ZMA A1201      21.141 174.243  18.040  1.00  0.00     0.236 A
BRANCH  21  25
HETATM   25  C21 ZMA A1201      19.713 177.185  19.470  1.00  0.00     0.128 A
HETATM   26  C23 ZMA A1201      19.826 179.232  20.161  1.00  0.00     0.028 A
HETATM   27  C22 ZMA A1201      20.621 178.191  19.709  1.00  0.00     0.039 A
HETATM   28  C24 ZMA A1201      18.495 178.827  20.176  1.00  0.00     0.136 A
HETATM   29  O25 ZMA A1201      18.420 177.519  19.733  1.00  0.00    -0.313 OA
ENDBRANCH  21  25
ENDBRANCH  11  13
ENDBRANCH  10  11
ENDBRANCH   9  10
ENDBRANCH   8   9
TORSDOF 5
