REMARK 11 active torsions:
REMARK  status: ('A' for Active; 'I' for Inactive)
REMARK    1  A    between atoms: N2_4  and  C12_18
REMARK    2  A    between atoms: C12_18  and  N3_20
REMARK    3  A    between atoms: N3_20  and  C13_22
REMARK    4  A    between atoms: C13_22  and  C14_23
REMARK    5  A    between atoms: C14_23  and  N4_24
REMARK    6  A    between atoms: C19_29  and  C20_30
REMARK    7  A    between atoms: C20_30  and  N5_31
REMARK    8  A    between atoms: N5_31  and  C21_32
REMARK    9  A    between atoms: N5_31  and  C24_35
REMARK   10  A    between atoms: C24_35  and  C25_36
REMARK   11  A    between atoms: C21_32  and  C22_33
ROOT
HETATM    1  C4  82F A1201     -60.758 -12.798  12.588  1.00  0.00     0.113 A
HETATM    2  N1  82F A1201     -59.997 -13.870  12.321  1.00  0.00    -0.241 NA
HETATM    3  C5  82F A1201     -58.813 -13.642  11.741  1.00  0.00     0.140 A
HETATM    4  N2  82F A1201     -57.994 -14.776  11.503  1.00  0.00    -0.151 N
HETATM    5  C8  82F A1201     -55.269 -15.881  13.765  1.00  0.00     0.002 A
HETATM    6  C6  82F A1201     -56.729 -14.838  12.173  1.00  0.00     0.045 A
HETATM    7  C2  82F A1201     -59.165 -11.273  11.695  1.00  0.00     0.024 A
HETATM    8  C11 82F A1201     -55.742 -13.882  11.885  1.00  0.00     0.052 A
HETATM    9  C7  82F A1201     -56.490 -15.835  13.115  1.00  0.00     0.021 A
HETATM   10  H   82F A1201     -57.101 -11.393  10.097  1.00  0.00     0.137 HD
HETATM   11  C10 82F A1201     -54.520 -13.951  12.552  1.00  0.00     0.014 A
HETATM   12  C1  82F A1201     -58.352 -12.363  11.404  1.00  0.00     0.060 A
HETATM   13  C   82F A1201     -55.909 -12.768  10.907  1.00  0.00     0.237 C
HETATM   14  N   82F A1201     -57.100 -12.154  10.777  1.00  0.00    -0.222 N
HETATM   15  C3  82F A1201     -60.389 -11.502  12.299  1.00  0.00     0.021 A
HETATM   16  C9  82F A1201     -54.292 -14.948  13.485  1.00  0.00     0.001 A
HETATM   17  O   82F A1201     -54.957 -12.431  10.208  1.00  0.00    -0.274 OA
ENDROOT
BRANCH   4  18
HETATM   18  C12 82F A1201     -58.398 -15.793  10.590  1.00  0.00     0.286 C
HETATM   19  O1  82F A1201     -59.526 -15.785  10.119  1.00  0.00    -0.260 OA
BRANCH  18  20
HETATM   20  N3  82F A1201     -57.457 -16.700  10.313  1.00  0.00    -0.243 N
HETATM   21  H3  82F A1201     -56.529 -16.628  10.731  1.00  0.00     0.132 HD
BRANCH  20  22
HETATM   22  C13 82F A1201     -57.775 -17.792   9.406  1.00  0.00     0.105 C
BRANCH  22  23
HETATM   23  C14 82F A1201     -57.364 -17.472   7.984  1.00  0.00     0.100 C
BRANCH  23  24
HETATM   24  N4  82F A1201     -57.626 -18.352   6.839  1.00  0.00    -0.297 NA
HETATM   25  C16 82F A1201     -55.764 -17.606   5.405  1.00  0.00     0.015 C
HETATM   26  C15 82F A1201     -56.380 -18.752   6.171  1.00  0.00     0.085 C
HETATM   27  C17 82F A1201     -56.739 -17.052   4.392  1.00  0.00     0.003 C
HETATM   28  C18 82F A1201     -58.050 -16.657   5.059  1.00  0.00     0.020 C
HETATM   29  C19 82F A1201     -58.610 -17.812   5.877  1.00  0.00     0.071 C
BRANCH  29  30
HETATM   30  C20 82F A1201     -59.248 -18.934   5.053  1.00  0.00     0.103 C
BRANCH  30  31
HETATM   31  N5  82F A1201     -60.200 -19.526   6.000  1.00  0.00    -0.301 NA
BRANCH  31  32
HETATM   32  C21 82F A1201     -61.341 -18.646   6.284  1.00  0.00     0.084 C
BRANCH  32  33
HETATM   33  C22 82F A1201     -61.719 -18.581   7.749  1.00  0.00     0.012 C
HETATM   34  C23 82F A1201     -62.906 -17.684   7.980  1.00  0.00     0.005 C
ENDBRANCH  32  33
ENDBRANCH  31  32
BRANCH  31  35
HETATM   35  C24 82F A1201     -60.632 -20.869   5.598  1.00  0.00     0.084 C
BRANCH  35  36
HETATM   36  C25 82F A1201     -60.659 -21.864   6.733  1.00  0.00     0.012 C
HETATM   37  C26 82F A1201     -61.109 -23.205   6.276  1.00  0.00     0.005 C
ENDBRANCH  35  36
ENDBRANCH  31  35
ENDBRANCH  30  31
ENDBRANCH  29  30
ENDBRANCH  23  24
ENDBRANCH  22  23
ENDBRANCH  20  22
ENDBRANCH  18  20
ENDBRANCH   4  18
TORSDOF 11
