MODEL        1
REMARK THIS MODEL IS IDENTICAL TO THE INPUT LIGAND AND NOT FROM DOCKING
REMARK 921   NORMALIZED FREE ENERGY PREDICTED BY IDOCK:  -11.27 KCAL/MOL
REMARK 922        TOTAL FREE ENERGY PREDICTED BY IDOCK:  -14.26 KCAL/MOL
REMARK 923 INTER-LIGAND FREE ENERGY PREDICTED BY IDOCK:  -13.24 KCAL/MOL
REMARK 924 INTRA-LIGAND FREE ENERGY PREDICTED BY IDOCK:   -1.02 KCAL/MOL
REMARK 927      BINDING AFFINITY PREDICTED BY RF-SCORE:    0.00 PKD
ROOT
HETATM    1  C1  SUV A2001      51.065   6.873  55.061  1.00  0.00    -0.320 A  
HETATM    2  C7  SUV A2001      48.611   9.044  54.061  1.00  0.00    -0.654 A  
HETATM    3  O1  SUV A2001      50.274   7.311  54.118  1.00  0.00    -0.419 OA 
HETATM    4  C8  SUV A2001      49.552   8.289  54.626  1.00  0.00    -0.423 A  
HETATM    5  C6  SUV A2001      47.973  10.028  54.796  1.00  0.00    -0.357 A  
HETATM    6  C3  SUV A2001      49.914   8.446  55.906  1.00  0.00    -0.355 A  
HETATM    7 CL1  SUV A2001      47.586  11.394  57.073  1.00  0.00    -0.852 Cl 
HETATM    8  N2  SUV A2001      50.868   7.553  56.183  1.00  0.00    -0.308 NA 
HETATM    9  C5  SUV A2001      48.345  10.192  56.121  1.00  0.00    -0.399 A  
HETATM   10  C4  SUV A2001      49.332   9.378  56.660  1.00  0.00    -0.378 A  
ENDROOT
BRANCH   1  11
HETATM   11  N1  SUV A2001      51.928   5.873  54.855  1.00  0.00    -0.293 NA 
HETATM   12  C17 SUV A2001      54.550   7.695  53.369  1.00  0.00    -0.294 C  
HETATM   13  C14 SUV A2001      54.848   5.528  54.313  1.00  0.00    -0.324 C  
HETATM   14  C12 SUV A2001      52.842   6.111  52.661  1.00  0.00    -0.344 C  
HETATM   15  C15 SUV A2001      53.978   4.624  55.193  1.00  0.00    -0.335 C  
HETATM   16  C11 SUV A2001      51.895   5.284  53.512  1.00  0.00    -0.309 C  
HETATM   17  N3  SUV A2001      54.068   6.441  53.433  1.00  0.00    -0.276 N  
HETATM   18  C30 SUV A2001      55.815   4.670  53.495  1.00  0.00    -0.417 C  
HETATM   19  O2  SUV A2001      55.542   8.030  54.017  1.00  0.00    -0.560 OA 
HETATM   20  C16 SUV A2001      52.881   5.438  55.890  1.00  0.00    -0.356 C  
BRANCH  12  21
HETATM   21  C19 SUV A2001      53.863   8.668  52.642  1.00  0.00    -0.371 A  
HETATM   22  C20 SUV A2001      53.959   8.848  51.254  1.00  0.00    -0.345 A  
HETATM   23  C21 SUV A2001      53.213   9.857  50.648  1.00  0.00    -0.464 A  
HETATM   24  C29 SUV A2001      51.476  11.336  53.529  1.00  0.00    -0.659 C  
HETATM   25  C24 SUV A2001      53.034   9.511  53.379  1.00  0.00    -0.336 A  
HETATM   26  C22 SUV A2001      52.386  10.692  51.393  1.00  0.00    -0.555 A  
HETATM   27  C23 SUV A2001      52.297  10.514  52.766  1.00  0.00    -0.446 A  
BRANCH  22  28
HETATM   28  N4  SUV A2001      54.727   8.096  50.464  1.00  0.00    -0.347 NA 
HETATM   29  C28 SUV A2001      56.281   6.922  49.707  1.00  0.00    -0.432 A  
HETATM   30  N5  SUV A2001      54.437   7.845  49.303  1.00  0.00    -0.383 NA 
HETATM   31  C27 SUV A2001      55.382   7.090  48.757  1.00  0.00    -0.456 A  
HETATM   32  N6  SUV A2001      55.807   7.587  50.753  1.00  0.00    -0.476 NA 
ENDBRANCH  22  28
ENDBRANCH  12  21
ENDBRANCH   1  11
TORSDOF 3
ENDMDL
