REMARK  4 active torsions:
REMARK  status: ('A' for Active; 'I' for Inactive)
REMARK    1  A    between atoms: C5_8  and  C8_14
REMARK    2  A    between atoms: N01_15  and  C10_18
REMARK    3  A    between atoms: N2_21  and  C15_24
REMARK    4  A    between atoms: C22_27  and  C23_34
ROOT
HETATM    1  N1  836 A1201     -35.050  10.776  27.086  1.00  0.00     0.152 N
HETATM    2  O3  836 A1201     -34.646  11.074  28.153  1.00  0.00    -0.157 OA
HETATM    3  O2  836 A1201     -34.437  11.105  26.133  1.00  0.00    -0.157 OA
HETATM    4  C1  836 A1201     -36.287  10.013  26.945  1.00  0.00     0.106 A
HETATM    5  C2  836 A1201     -36.793   9.637  25.542  1.00  0.00     0.040 A
HETATM    6  C3  836 A1201     -37.916   8.947  25.386  1.00  0.00     0.068 A
HETATM    7  C4  836 A1201     -38.407   8.580  23.977  1.00  0.00     0.418 C
HETATM    8  C5  836 A1201     -38.714   8.526  26.634  1.00  0.00     0.045 A
HETATM    9  F2  836 A1201     -38.387   7.229  23.807  1.00  0.00    -0.166 F
HETATM   10  F4  836 A1201     -39.676   9.041  23.803  1.00  0.00    -0.166 F
HETATM   11  C7  836 A1201     -36.984   9.645  28.015  1.00  0.00     0.027 A
HETATM   12  C6  836 A1201     -38.291   8.859  27.847  1.00  0.00     0.015 A
HETATM   13  F3  836 A1201     -37.617   9.134  23.019  1.00  0.00    -0.166 F
ENDROOT
BRANCH   8  14
HETATM   14  C8  836 A1201     -40.019   7.740  26.491  1.00  0.00     0.235 C
HETATM   15  N01 836 A1201     -40.027   6.278  26.404  1.00  0.00    -0.240 N
HETATM   16  O1  836 A1201     -41.026   8.358  26.403  1.00  0.00    -0.274 OA
HETATM   17  C9  836 A1201     -38.781   5.528  26.487  1.00  0.00     0.114 C
BRANCH  15  18
HETATM   18  C10 836 A1201     -41.288   5.584  26.265  1.00  0.00     0.067 C
HETATM   19  C14 836 A1201     -41.234   4.346  25.308  1.00  0.00     0.035 C
HETATM   20  C13 836 A1201     -42.607   3.610  25.316  1.00  0.00     0.093 C
HETATM   21  N2  836 A1201     -43.066   3.372  26.674  1.00  0.00    -0.257 NA
HETATM   22  C11 836 A1201     -41.853   5.232  27.641  1.00  0.00     0.035 C
HETATM   23  C12 836 A1201     -43.161   4.489  27.548  1.00  0.00     0.093 C
BRANCH  21  24
HETATM   24  C15 836 A1201     -42.980   2.013  27.219  1.00  0.00     0.140 A
HETATM   25  N4  836 A1201     -41.937   1.289  26.884  1.00  0.00    -0.136 NA
HETATM   26  N3  836 A1201     -41.762   0.019  27.303  1.00  0.00    -0.146 NA
HETATM   27  C22 836 A1201     -42.700  -0.621  27.993  1.00  0.00     0.114 A
HETATM   28  C16 836 A1201     -44.057   1.388  27.878  1.00  0.00     0.023 A
HETATM   29  C17 836 A1201     -43.907   0.047  28.332  1.00  0.00     0.014 A
HETATM   30  C21 836 A1201     -45.238   2.076  28.182  1.00  0.00     0.012 A
HETATM   31  C18 836 A1201     -44.934  -0.545  29.072  1.00  0.00     0.011 A
HETATM   32  C20 836 A1201     -46.247   1.465  28.924  1.00  0.00     0.001 A
HETATM   33  C19 836 A1201     -46.097   0.157  29.368  1.00  0.00     0.001 A
BRANCH  27  34
HETATM   34  C23 836 A1201     -42.587  -2.148  28.074  1.00  0.00     0.069 A
HETATM   35  N5  836 A1201     -41.847  -4.238  28.689  1.00  0.00    -0.201 NA
HETATM   36  N6  836 A1201     -41.724  -2.866  28.841  1.00  0.00    -0.170 NA
HETATM   37  C24 836 A1201     -43.301  -3.023  27.355  1.00  0.00     0.044 A
HETATM   38  C25 836 A1201     -42.871  -4.359  27.729  1.00  0.00     0.128 A
HETATM   39  C26 836 A1201     -40.769  -2.278  29.756  1.00  0.00     0.138 C
ENDBRANCH  27  34
ENDBRANCH  21  24
ENDBRANCH  15  18
ENDBRANCH   8  14
TORSDOF 4
