REMARK  1 active torsions:
REMARK  status: ('A' for Active; 'I' for Inactive)
REMARK    1  A    between atoms: N10_7  and  C3_8
ROOT
HETATM    1  C11 XF5 A1359     -23.273 -13.121  25.416  1.00  0.00     0.105 C
HETATM    2  C12 XF5 A1359     -24.521 -13.461  24.722  1.00  0.00     0.096 C
HETATM    3  N13 XF5 A1359     -25.427 -12.312  24.852  1.00  0.00    -0.314 NA
HETATM    4  C14 XF5 A1359     -24.905 -11.155  24.129  1.00  0.00     0.096 C
HETATM    5  H13 XF5 A1359     -25.619 -12.091  25.829  1.00  0.00     0.122 HD
HETATM    6  C15 XF5 A1359     -23.597 -10.647  24.648  1.00  0.00     0.105 C
HETATM    7  N10 XF5 A1359     -22.709 -11.770  25.081  1.00  0.00    -0.271 NA
ENDROOT
BRANCH   7   8
HETATM    8  C3  XF5 A1359     -21.381 -11.556  25.270  1.00  0.00     0.027 A
HETATM    9  C4  XF5 A1359     -20.763 -11.977  26.394  1.00  0.00     0.012 A
HETATM   10  C5  XF5 A1359     -21.196 -12.619  27.487  1.00  0.00     0.023 A
HETATM   11  C6  XF5 A1359     -20.170 -12.804  28.316  1.00  0.00     0.058 A
HETATM   12  N7  XF5 A1359     -19.083 -12.271  27.753  1.00  0.00    -0.264 NA
HETATM   13  C8  XF5 A1359     -19.441 -11.762  26.569  1.00  0.00     0.028 A
HETATM   14  H7  XF5 A1359     -18.146 -12.255  28.155  1.00  0.00     0.133 HD
HETATM   15  C9  XF5 A1359     -18.694 -11.135  25.652  1.00  0.00     0.020 A
HETATM   16  C1  XF5 A1359     -19.261 -10.677  24.479  1.00  0.00     0.003 A
HETATM   17  C2  XF5 A1359     -20.619 -10.898  24.285  1.00  0.00     0.020 A
ENDBRANCH   7   8
TORSDOF 1
