REMARK  3 active torsions:
REMARK  status: ('A' for Active; 'I' for Inactive)
REMARK    1  A    between atoms: C1_1  and  N1_11
REMARK    2  A    between atoms: C17_12  and  C19_21
REMARK    3  A    between atoms: C20_27  and  N4_28
ROOT
HETATM    1  C1  SUV A2001      -8.067  -1.538 -55.027  1.00  0.00     0.227 A
HETATM    2  C7  SUV A2001      -5.320  -3.366 -53.850  1.00  0.00     0.037 A
HETATM    3  O1  SUV A2001      -7.428  -2.060 -53.948  1.00  0.00    -0.279 OA
HETATM    4  C8  SUV A2001      -6.326  -2.677 -54.492  1.00  0.00     0.111 A
HETATM    5  C6  SUV A2001      -4.301  -3.889 -54.631  1.00  0.00     0.022 A
HETATM    6  C3  SUV A2001      -6.362  -2.494 -55.853  1.00  0.00     0.100 A
HETATM    7 CL1  SUV A2001      -3.028  -4.353 -56.970  1.00  0.00    -0.083 Cl
HETATM    8  N2  SUV A2001      -7.501  -1.752 -56.177  1.00  0.00    -0.210 NA
HETATM    9  C5  SUV A2001      -4.328  -3.705 -56.009  1.00  0.00     0.043 A
HETATM   10  C4  SUV A2001      -5.347  -3.015 -56.646  1.00  0.00     0.050 A
ENDROOT
BRANCH   1  11
HETATM   11  N1  SUV A2001      -9.182  -0.881 -54.761  1.00  0.00    -0.237 NA
HETATM   12  C17 SUV A2001      -7.893   2.178 -54.188  1.00  0.00     0.236 C
HETATM   13  C14 SUV A2001     -10.246   2.003 -54.739  1.00  0.00     0.063 C
HETATM   14  C12 SUV A2001      -9.321   0.627 -52.853  1.00  0.00     0.109 C
HETATM   15  C15 SUV A2001     -10.960   0.795 -55.329  1.00  0.00     0.035 C
HETATM   16  C11 SUV A2001      -9.657  -0.718 -53.382  1.00  0.00     0.109 C
HETATM   17  C16 SUV A2001      -9.996  -0.281 -55.825  1.00  0.00     0.095 C
HETATM   18  C30 SUV A2001     -11.208   2.902 -53.983  1.00  0.00     0.024 C
HETATM   19  O2  SUV A2001      -7.773   3.002 -55.076  1.00  0.00    -0.274 OA
HETATM   20  N3  SUV A2001      -9.087   1.618 -53.907  1.00  0.00    -0.236 N
BRANCH  12  21
HETATM   21  C19 SUV A2001      -6.695   1.763 -53.380  1.00  0.00     0.055 A
HETATM   22  C24 SUV A2001      -5.701   1.047 -54.048  1.00  0.00     0.017 A
HETATM   23  C23 SUV A2001      -4.538   0.646 -53.410  1.00  0.00    -0.050 A
HETATM   24  C29 SUV A2001      -3.475  -0.127 -54.153  1.00  0.00     0.044 C
HETATM   25  C22 SUV A2001      -4.378   0.972 -52.073  1.00  0.00     0.005 A
HETATM   26  C21 SUV A2001      -5.344   1.676 -51.379  1.00  0.00     0.024 A
HETATM   27  C20 SUV A2001      -6.508   2.075 -52.025  1.00  0.00     0.076 A
BRANCH  27  28
HETATM   28  N4  SUV A2001      -7.489   2.786 -51.270  1.00  0.00    -0.057 NA
HETATM   29  N5  SUV A2001      -7.964   2.338 -50.104  1.00  0.00    -0.178 NA
HETATM   30  C27 SUV A2001      -8.843   3.254 -49.720  1.00  0.00     0.150 A
HETATM   31  C28 SUV A2001      -8.867   4.295 -50.740  1.00  0.00     0.150 A
HETATM   32  N6  SUV A2001      -8.002   3.951 -51.684  1.00  0.00    -0.178 NA
ENDBRANCH  27  28
ENDBRANCH  12  21
ENDBRANCH   1  11
TORSDOF 3
