MODEL        1
REMARK THIS MODEL IS IDENTICAL TO THE INPUT LIGAND AND NOT FROM DOCKING
REMARK 921   NORMALIZED FREE ENERGY PREDICTED BY IDOCK:   -8.91 KCAL/MOL
REMARK 922        TOTAL FREE ENERGY PREDICTED BY IDOCK:  -15.30 KCAL/MOL
REMARK 923 INTER-LIGAND FREE ENERGY PREDICTED BY IDOCK:  -14.11 KCAL/MOL
REMARK 924 INTRA-LIGAND FREE ENERGY PREDICTED BY IDOCK:   -1.18 KCAL/MOL
REMARK 927      BINDING AFFINITY PREDICTED BY RF-SCORE:    0.00 PKD
ROOT
HETATM    1  C01 J9P A2101     125.471 -11.713 153.693  1.00  0.00    -0.802 C  
HETATM    2  C02 J9P A2101     125.985 -11.098 152.400  1.00  0.00    -0.612 C  
ENDROOT
BRANCH   2   3
HETATM    3  C03 J9P A2101     126.083  -9.576 152.453  1.00  0.00    -0.502 C  
BRANCH   3   4
HETATM    4  C04 J9P A2101     126.987  -9.075 151.320  1.00  0.00    -0.429 C  
HETATM    5  C05 J9P A2101     126.850  -7.623 150.827  1.00  0.00    -0.398 C  
HETATM    6  C07 J9P A2101     127.134  -6.541 151.880  1.00  0.00    -0.426 C  
HETATM    7  O26 J9P A2101     127.735  -7.454 149.753  1.00  0.00    -0.708 OA 
HETATM    8  C06 J9P A2101     125.442  -7.371 150.307  1.00  0.00    -0.521 C  
HETATM    9  H26 J9P A2101     127.650  -6.558 149.449  1.00  0.00     0.000 HD 
BRANCH   6  10
HETATM   10  C08 J9P A2101     128.465  -6.717 152.613  1.00  0.00    -0.380 C  
HETATM   11  C09 J9P A2101     129.204  -5.656 152.853  1.00  0.00    -0.380 C  
BRANCH  11  12
HETATM   12  C10 J9P A2101     130.501  -5.766 153.576  1.00  0.00    -0.441 C  
HETATM   13  C11 J9P A2101     131.659  -4.895 152.739  1.00  0.00    -0.421 C  
HETATM   14  O25 J9P A2101     132.233  -5.696 151.788  1.00  0.00    -0.468 OA 
HETATM   15  C12 J9P A2101     132.607  -4.536 153.685  1.00  0.00    -0.514 C  
HETATM   16  H25 J9P A2101     132.890  -5.201 151.313  1.00  0.00     0.000 HD 
HETATM   17  C13 J9P A2101     131.851  -4.551 155.066  1.00  0.00    -0.419 C  
HETATM   18  O14 J9P A2101     132.307  -4.199 156.109  1.00  0.00    -0.483 OA 
HETATM   19  C15 J9P A2101     130.422  -5.107 154.822  1.00  0.00    -0.427 C  
BRANCH  19  20
HETATM   20  C16 J9P A2101     129.905  -6.024 155.987  1.00  0.00    -0.456 C  
BRANCH  20  21
HETATM   21  C17 J9P A2101     130.792  -7.234 156.286  1.00  0.00    -0.405 C  
BRANCH  21  22
HETATM   22  C18 J9P A2101     130.145  -8.236 157.242  1.00  0.00    -0.567 C  
BRANCH  22  23
HETATM   23  C19 J9P A2101     130.348  -7.882 158.715  1.00  0.00    -0.695 C  
BRANCH  23  24
HETATM   24  C20 J9P A2101     131.730  -8.225 159.263  1.00  0.00    -0.636 C  
BRANCH  24  25
HETATM   25  C21 J9P A2101     132.063  -7.351 160.469  1.00  0.00    -0.719 C  
HETATM   26  C22 J9P A2101     133.553  -7.294 160.814  1.00  0.00    -0.576 C  
HETATM   27  O24 J9P A2101     134.416  -7.066 159.922  1.00  0.00    -0.783 OA 
HETATM   28  O23 J9P A2101     133.919  -7.460 162.009  1.00  0.00    -0.947 OA 
ENDBRANCH  24  25
ENDBRANCH  23  24
ENDBRANCH  22  23
ENDBRANCH  21  22
ENDBRANCH  20  21
ENDBRANCH  19  20
ENDBRANCH  11  12
ENDBRANCH   6  10
ENDBRANCH   3   4
ENDBRANCH   2   3
TORSDOF 10
ENDMDL
