MODEL        1
REMARK THIS MODEL IS IDENTICAL TO THE INPUT LIGAND AND NOT FROM DOCKING
REMARK 921   NORMALIZED FREE ENERGY PREDICTED BY IDOCK:   -3.63 KCAL/MOL
REMARK 922        TOTAL FREE ENERGY PREDICTED BY IDOCK:   -5.04 KCAL/MOL
REMARK 923 INTER-LIGAND FREE ENERGY PREDICTED BY IDOCK:   -4.48 KCAL/MOL
REMARK 924 INTRA-LIGAND FREE ENERGY PREDICTED BY IDOCK:   -0.56 KCAL/MOL
REMARK 927      BINDING AFFINITY PREDICTED BY RF-SCORE:    0.00 PKD
ROOT
HETATM    1  C1  RET A1296      55.276  13.629  18.121  1.00  0.00    -0.497 C  
HETATM    2  C2  RET A1296      55.046  15.026  17.595  1.00  0.00    -0.660 C  
HETATM    3  C17 RET A1296      54.181  12.751  17.481  1.00  0.00    -0.378 C  
HETATM    4  C16 RET A1296      54.978  13.461  19.592  1.00  0.00    -0.297 C  
HETATM    5  C3  RET A1296      55.346  15.168  16.057  1.00  0.00    -0.719 C  
HETATM    6  C4  RET A1296      56.359  14.101  15.419  1.00  0.00    -0.779 C  
HETATM    7  C5  RET A1296      57.170  13.268  16.458  1.00  0.00    -0.721 C  
HETATM    8  C6  RET A1296      56.676  13.074  17.768  1.00  0.00    -0.545 C  
HETATM    9  C18 RET A1296      58.534  12.829  15.908  1.00  0.00    -0.827 C  
ENDROOT
BRANCH   8  10
HETATM   10  C7  RET A1296      57.575  12.356  18.754  1.00  0.00    -0.520 C  
HETATM   11  C8  RET A1296      57.700  10.980  18.685  1.00  0.00    -0.540 C  
BRANCH  11  12
HETATM   12  C9  RET A1296      58.374   9.999  19.568  1.00  0.00    -0.591 C  
HETATM   13  C19 RET A1296      58.433  10.342  21.024  1.00  0.00    -0.456 C  
HETATM   14  C10 RET A1296      58.876   8.885  18.990  1.00  0.00    -0.674 C  
BRANCH  14  15
HETATM   15  C11 RET A1296      59.586   7.798  19.712  1.00  0.00    -0.607 C  
HETATM   16  C12 RET A1296      59.842   6.513  19.308  1.00  0.00    -0.357 C  
BRANCH  16  17
HETATM   17  C13 RET A1296      59.594   5.650  18.132  1.00  0.00    -0.492 C  
HETATM   18  C14 RET A1296      60.236   4.458  18.173  1.00  0.00     0.647 C  
HETATM   19  C20 RET A1296      58.686   6.091  17.013  1.00  0.00    -0.798 C  
HETATM   20  C15 RET A1296      60.028   3.335  17.199  1.00  0.00     5.333 C  
ENDBRANCH  16  17
ENDBRANCH  14  15
ENDBRANCH  11  12
ENDBRANCH   8  10
TORSDOF 4
ENDMDL
