MODEL        1
REMARK THIS MODEL IS IDENTICAL TO THE INPUT LIGAND AND NOT FROM DOCKING
REMARK 921   NORMALIZED FREE ENERGY PREDICTED BY IDOCK:   -8.91 KCAL/MOL
REMARK 922        TOTAL FREE ENERGY PREDICTED BY IDOCK:  -11.23 KCAL/MOL
REMARK 923 INTER-LIGAND FREE ENERGY PREDICTED BY IDOCK:  -11.00 KCAL/MOL
REMARK 924 INTRA-LIGAND FREE ENERGY PREDICTED BY IDOCK:   -0.23 KCAL/MOL
REMARK 927      BINDING AFFINITY PREDICTED BY RF-SCORE:    0.00 PKD
ROOT
HETATM    1  CAA P0G R1601      23.974   7.094 -14.709  1.00  0.00    -0.493 C  
HETATM    2  CAT P0G R1601      23.069   8.297 -14.696  1.00  0.00    -0.464 A  
HETATM    3  CAI P0G R1601      22.762   8.928 -15.896  1.00  0.00    -0.189 A  
HETATM    4  CAG P0G R1601      21.930  10.040 -15.909  1.00  0.00    -0.411 A  
HETATM    5  CAH P0G R1601      21.403  10.523 -14.718  1.00  0.00    -0.537 A  
HETATM    6  CAJ P0G R1601      21.713   9.893 -13.519  1.00  0.00    -0.465 A  
HETATM    7  CAV P0G R1601      22.539   8.773 -13.506  1.00  0.00    -0.545 A  
ENDROOT
BRANCH   7   8
HETATM    8  CAO P0G R1601      22.870   8.103 -12.188  1.00  0.00    -0.532 C  
HETATM    9  CBA P0G R1601      21.876   7.015 -11.778  1.00  0.00    -0.446 C  
HETATM   10  CAC P0G R1601      20.455   7.365 -12.204  1.00  0.00    -0.550 C  
HETATM   11  CAB P0G R1601      22.267   5.666 -12.367  1.00  0.00     0.368 C  
HETATM   12  NAP P0G R1601      21.940   6.908 -10.330  1.00  0.00    -0.352 NA 
HETATM   13  HAP P0G R1601      22.369   7.664  -9.797  1.00  0.00     0.000 HD 
BRANCH  12  14
HETATM   14  CAN P0G R1601      21.412   5.757  -9.619  1.00  0.00    -0.262 C  
BRANCH  14  15
HETATM   15  CAZ P0G R1601      20.050   6.082  -9.018  1.00  0.00    -0.409 C  
HETATM   16  HAF P0G R1601      20.583   7.870  -8.434  1.00  0.00     0.000 HD 
HETATM   17  OAF P0G R1601      20.219   7.096  -8.022  1.00  0.00    -0.197 OA 
BRANCH  15  18
HETATM   18  CAW P0G R1601      19.483   4.877  -8.376  1.00  0.00    -0.597 A  
HETATM   19  CAY P0G R1601      18.628   4.053  -9.082  1.00  0.00    -0.396 A  
HETATM   20  OAR P0G R1601      18.301   4.303 -10.383  1.00  0.00    -0.266 OA 
HETATM   21  CAM P0G R1601      16.978   3.992 -10.813  1.00  0.00     0.834 C  
HETATM   22  CAS P0G R1601      16.511   2.691 -10.195  1.00  0.00    -0.366 C  
HETATM   23  OAD P0G R1601      15.473   2.174 -10.577  1.00  0.00    -0.717 OA 
HETATM   24  NAQ P0G R1601      17.269   2.153  -9.238  1.00  0.00    -0.611 N  
HETATM   25  CAX P0G R1601      18.086   2.932  -8.496  1.00  0.00    -0.465 A  
HETATM   26  HAQ P0G R1601      17.232   1.148  -9.066  1.00  0.00     0.000 HD 
HETATM   27  CAU P0G R1601      18.386   2.621  -7.182  1.00  0.00    -0.492 A  
HETATM   28  OAE P0G R1601      17.850   1.512  -6.600  1.00  0.00    -0.958 OA 
HETATM   29  CAK P0G R1601      19.237   3.447  -6.457  1.00  0.00    -0.725 A  
HETATM   30  CAL P0G R1601      19.784   4.578  -7.053  1.00  0.00    -0.754 A  
HETATM   31  HAE P0G R1601      18.056   1.298  -5.698  1.00  0.00     0.000 HD 
ENDBRANCH  15  18
ENDBRANCH  14  15
ENDBRANCH  12  14
ENDBRANCH   7   8
TORSDOF 4
ENDMDL
