REMARK  3 active torsions:
REMARK  status: ('A' for Active; 'I' for Inactive)
REMARK    1  A    between atoms: C1_1  and  C7_11
REMARK    2  A    between atoms: C7_11  and  C8_14
REMARK    3  A    between atoms: C8_14  and  N1_15
ROOT
HETATM    1  C1  ALE A1402      -1.597 -12.703 -48.312  1.00  0.00    -0.015 A
HETATM    2  C2  ALE A1402      -0.421 -12.868 -49.038  1.00  0.00     0.041 A
HETATM    3  C6  ALE A1402      -1.563 -12.110 -47.052  1.00  0.00     0.009 A
HETATM    4  H2  ALE A1402       2.050 -11.044 -45.916  1.00  0.00     0.217 HD
HETATM    5  C3  ALE A1402       0.781 -12.434 -48.492  1.00  0.00     0.103 A
HETATM    6  C5  ALE A1402      -0.358 -11.677 -46.506  1.00  0.00     0.035 A
HETATM    7  O2  ALE A1402       2.029 -11.448 -46.775  1.00  0.00    -0.357 OA
HETATM    8  H1  ALE A1402       2.791 -12.264 -48.769  1.00  0.00     0.217 HD
HETATM    9  C4  ALE A1402       0.812 -11.844 -47.237  1.00  0.00     0.102 A
HETATM   10  O1  ALE A1402       1.969 -12.561 -49.142  1.00  0.00    -0.357 OA
ENDROOT
BRANCH   1  11
HETATM   11  C7  ALE A1402      -2.805 -13.135 -48.853  1.00  0.00     0.158 C
HETATM   12  H3  ALE A1402      -4.653 -13.414 -48.223  1.00  0.00     0.210 HD
HETATM   13  O3  ALE A1402      -3.829 -13.119 -47.854  1.00  0.00    -0.386 OA
BRANCH  11  14
HETATM   14  C8  ALE A1402      -3.207 -12.227 -50.017  1.00  0.00     0.116 C
BRANCH  14  15
HETATM   15  N1  ALE A1402      -4.479 -12.665 -50.609  1.00  0.00    -0.316 NA
HETATM   16  C9  ALE A1402      -4.834 -11.777 -51.725  1.00  0.00     0.101 C
HETATM   17  H1  ALE A1402      -4.456 -13.645 -50.889  1.00  0.00     0.122 HD
ENDBRANCH  14  15
ENDBRANCH  11  14
ENDBRANCH   1  11
TORSDOF 3
