MODEL        1
REMARK THIS MODEL IS IDENTICAL TO THE INPUT LIGAND AND NOT FROM DOCKING
REMARK 921   NORMALIZED FREE ENERGY PREDICTED BY IDOCK:   -4.20 KCAL/MOL
REMARK 922        TOTAL FREE ENERGY PREDICTED BY IDOCK:   -7.32 KCAL/MOL
REMARK 923 INTER-LIGAND FREE ENERGY PREDICTED BY IDOCK:   -6.65 KCAL/MOL
REMARK 924 INTRA-LIGAND FREE ENERGY PREDICTED BY IDOCK:   -0.66 KCAL/MOL
REMARK 927      BINDING AFFINITY PREDICTED BY RF-SCORE:    0.00 PKD
ROOT
HETATM    1  C1  XAC A 999      48.999  24.127  30.369  1.00  0.00    -0.086 C  
HETATM    2  O1  XAC A 999      49.720  25.080  30.049  1.00  0.00    -0.555 OA 
HETATM    3  N2  XAC A 999      48.022  23.568  29.592  1.00  0.00     0.127 N  
HETATM    4  C2  XAC A 999      47.253  22.480  29.971  1.00  0.00     0.475 C  
HETATM    5  N3  XAC A 999      48.744  22.145  33.419  1.00  0.00    -0.335 NA 
HETATM    6  N1  XAC A 999      47.420  21.950  31.232  1.00  0.00    -0.268 N  
HETATM    7  C5  XAC A 999      49.132  23.520  31.679  1.00  0.00    -0.128 A  
HETATM    8  O2  XAC A 999      46.413  21.992  29.200  1.00  0.00    -0.269 OA 
HETATM    9  C4  XAC A 999      48.393  22.487  32.111  1.00  0.00    -0.162 A  
HETATM   10  N4  XAC A 999      49.971  23.867  32.721  1.00  0.00    -0.249 NA 
HETATM   11  C3  XAC A 999      49.710  23.027  33.745  1.00  0.00    -0.209 A  
HETATM   12  H3  XAC A 999      48.357  21.398  33.996  1.00  0.00     0.000 HD 
ENDROOT
BRANCH   3  13
HETATM   13  C6  XAC A 999      47.740  24.215  28.290  1.00  0.00    -0.365 C  
BRANCH  13  14
HETATM   14  C7  XAC A 999      46.694  25.338  28.436  1.00  0.00    -0.147 C  
HETATM   15  C11 XAC A 999      46.268  25.934  27.091  1.00  0.00    -0.165 C  
ENDBRANCH  13  14
ENDBRANCH   3  13
BRANCH   6  16
HETATM   16  C8  XAC A 999      46.580  20.848  31.722  1.00  0.00    -0.392 C  
BRANCH  16  17
HETATM   17  C9  XAC A 999      47.275  19.484  31.565  1.00  0.00    -0.010 C  
HETATM   18  C10 XAC A 999      46.490  18.350  32.233  1.00  0.00    -0.495 C  
ENDBRANCH  16  17
ENDBRANCH   6  16
BRANCH  11  19
HETATM   19  C15 XAC A 999      50.368  23.077  35.056  1.00  0.00    -0.173 A  
HETATM   20  C16 XAC A 999      51.391  24.017  35.316  1.00  0.00    -0.197 A  
HETATM   21  C17 XAC A 999      51.984  24.096  36.593  1.00  0.00    -0.360 A  
HETATM   22  C12 XAC A 999      51.572  23.242  37.635  1.00  0.00    -0.258 A  
HETATM   23  C13 XAC A 999      50.572  22.276  37.365  1.00  0.00    -0.411 A  
HETATM   24  C14 XAC A 999      49.974  22.199  36.092  1.00  0.00    -0.253 A  
BRANCH  22  25
HETATM   25  O3  XAC A 999      52.177  23.419  38.861  1.00  0.00    -0.251 OA 
BRANCH  25  26
HETATM   26  C18 XAC A 999      51.640  22.721  39.981  1.00  0.00    -0.268 C  
BRANCH  26  27
HETATM   27  C19 XAC A 999      52.284  23.261  41.262  1.00  0.00    -0.198 C  
HETATM   28  N5  XAC A 999      51.509  23.992  42.074  1.00  0.00    -0.226 N  
HETATM   29  O4  XAC A 999      53.469  23.025  41.513  1.00  0.00    -0.167 OA 
HETATM   30  H5  XAC A 999      50.545  24.150  41.781  1.00  0.00     0.000 HD 
BRANCH  28  31
HETATM   31  C20 XAC A 999      51.925  24.580  43.339  1.00  0.00    -0.195 C  
BRANCH  31  32
HETATM   32  C21 XAC A 999      50.760  25.370  43.957  1.00  0.00    -0.225 C  
HETATM   33  N6  XAC A 999      51.161  25.965  45.217  1.00  0.00    -0.237 NA 
HETATM   34  H62 XAC A 999      51.997  26.540  45.115  1.00  0.00     0.000 HD 
HETATM   35  H61 XAC A 999      50.388  26.489  45.627  1.00  0.00     0.000 HD 
ENDBRANCH  31  32
ENDBRANCH  28  31
ENDBRANCH  26  27
ENDBRANCH  25  26
ENDBRANCH  22  25
ENDBRANCH  11  19
TORSDOF 10
ENDMDL
