REMARK  9 active torsions:
REMARK  status: ('A' for Active; 'I' for Inactive)
REMARK    1  A    between atoms: C2_2  and  N1_3
REMARK    2  A    between atoms: C3_4  and  C4_7
REMARK    3  A    between atoms: C5_9  and  N2_16
REMARK    4  A    between atoms: C11_23  and  N6_28
REMARK    5  A    between atoms: N6_28  and  C12_30
REMARK    6  A    between atoms: C12_30  and  C13_31
REMARK    7  A    between atoms: C13_31  and  C14_32
REMARK    8  A    between atoms: C17_35  and  C18_38
REMARK    9  A    between atoms: C18_38  and  C19_39
ROOT
HETATM    1  C1  NGI A1320     -15.414  11.699 -33.532  1.00  0.00     0.020 C
HETATM    2  C2  NGI A1320     -15.431  10.333 -34.189  1.00  0.00     0.086 C
ENDROOT
BRANCH   2   3
HETATM    3  N1  NGI A1320     -16.571  10.166 -35.076  1.00  0.00    -0.256 N
HETATM    4  C3  NGI A1320     -16.726   9.113 -35.883  1.00  0.00     0.232 C
HETATM    5  H1  NGI A1320     -17.289  10.890 -35.082  1.00  0.00     0.130 HD
HETATM    6  O1  NGI A1320     -15.826   8.338 -36.180  1.00  0.00    -0.277 OA
BRANCH   4   7
HETATM    7  C4  NGI A1320     -18.105   8.921 -36.437  1.00  0.00     0.233 C
HETATM    8  O2  NGI A1320     -18.149   9.374 -37.796  1.00  0.00    -0.343 OA
HETATM    9  C5  NGI A1320     -18.712   8.379 -38.665  1.00  0.00     0.232 C
HETATM   10  C6  NGI A1320     -19.225   7.261 -37.768  1.00  0.00     0.190 C
HETATM   11  H4  NGI A1320     -18.865   7.224 -34.514  1.00  0.00     0.210 HD
HETATM   12  O3  NGI A1320     -20.630   7.444 -37.564  1.00  0.00    -0.385 OA
HETATM   13  H3  NGI A1320     -20.950   6.746 -37.004  1.00  0.00     0.210 HD
HETATM   14  C7  NGI A1320     -18.494   7.449 -36.455  1.00  0.00     0.184 C
HETATM   15  O4  NGI A1320     -19.324   7.106 -35.338  1.00  0.00    -0.386 OA
BRANCH   9  16
HETATM   16  N2  NGI A1320     -17.673   7.870 -39.608  1.00  0.00    -0.187 NA
HETATM   17  N3  NGI A1320     -15.698   7.384 -40.453  1.00  0.00    -0.237 NA
HETATM   18  C8  NGI A1320     -16.348   7.934 -39.404  1.00  0.00     0.177 A
HETATM   19  C9  NGI A1320     -16.633   6.963 -41.329  1.00  0.00     0.138 A
HETATM   20  C10 NGI A1320     -16.556   6.330 -42.569  1.00  0.00     0.136 A
HETATM   21  N4  NGI A1320     -15.353   6.021 -43.114  1.00  0.00    -0.285 NA
HETATM   22  N5  NGI A1320     -17.693   6.025 -43.234  1.00  0.00    -0.204 NA
HETATM   23  C11 NGI A1320     -18.908   6.330 -42.709  1.00  0.00     0.205 A
HETATM   24  H42 NGI A1320     -15.306   5.560 -44.023  1.00  0.00     0.125 HD
HETATM   25  H41 NGI A1320     -14.495   6.251 -42.612  1.00  0.00     0.125 HD
HETATM   26  C23 NGI A1320     -17.880   7.274 -40.795  1.00  0.00     0.148 A
HETATM   27  N7  NGI A1320     -19.000   6.948 -41.499  1.00  0.00    -0.203 NA
BRANCH  23  28
HETATM   28  N6  NGI A1320     -20.040   6.017 -43.389  1.00  0.00    -0.256 NA
HETATM   29  H6  NGI A1320     -20.921   5.938 -42.881  1.00  0.00     0.131 HD
BRANCH  28  30
HETATM   30  C12 NGI A1320     -20.027   5.792 -44.826  1.00  0.00     0.094 C
BRANCH  30  31
HETATM   31  C13 NGI A1320     -20.373   4.338 -45.208  1.00  0.00     0.050 C
BRANCH  31  32
HETATM   32  C14 NGI A1320     -19.981   4.013 -46.640  1.00  0.00    -0.046 A
HETATM   33  C15 NGI A1320     -19.106   4.836 -47.373  1.00  0.00     0.004 A
HETATM   34  C16 NGI A1320     -18.766   4.506 -48.688  1.00  0.00     0.004 A
HETATM   35  C17 NGI A1320     -19.302   3.350 -49.284  1.00  0.00    -0.047 A
HETATM   36  C21 NGI A1320     -20.171   2.530 -48.553  1.00  0.00     0.004 A
HETATM   37  C22 NGI A1320     -20.511   2.860 -47.239  1.00  0.00     0.004 A
BRANCH  35  38
HETATM   38  C18 NGI A1320     -18.944   2.973 -50.709  1.00  0.00     0.046 C
BRANCH  38  39
HETATM   39  C19 NGI A1320     -19.741   3.805 -51.712  1.00  0.00     0.113 C
HETATM   40  C20 NGI A1320     -20.641   2.914 -52.540  1.00  0.00     0.176 C
HETATM   41  O6  NGI A1320     -21.930   2.779 -52.233  1.00  0.00    -0.648 OA
HETATM   42  O5  NGI A1320     -20.201   2.308 -53.506  1.00  0.00    -0.648 OA
ENDBRANCH  38  39
ENDBRANCH  35  38
ENDBRANCH  31  32
ENDBRANCH  30  31
ENDBRANCH  28  30
ENDBRANCH  23  28
ENDBRANCH   9  16
ENDBRANCH   4   7
ENDBRANCH   2   3
TORSDOF 9
