MODEL        1
REMARK THIS MODEL IS IDENTICAL TO THE INPUT LIGAND AND NOT FROM DOCKING
REMARK 921   NORMALIZED FREE ENERGY PREDICTED BY IDOCK:   -7.92 KCAL/MOL
REMARK 922        TOTAL FREE ENERGY PREDICTED BY IDOCK:  -11.60 KCAL/MOL
REMARK 923 INTER-LIGAND FREE ENERGY PREDICTED BY IDOCK:  -11.17 KCAL/MOL
REMARK 924 INTRA-LIGAND FREE ENERGY PREDICTED BY IDOCK:   -0.43 KCAL/MOL
REMARK 927      BINDING AFFINITY PREDICTED BY RF-SCORE:    0.00 PKD
ROOT
HETATM    1  O3  Y00 A 601     -33.522 -16.734  26.443  1.00  0.00    -0.299 OA 
HETATM    2  C16 Y00 A 601     -32.228 -16.485  26.129  1.00  0.00    -0.348 A  
HETATM    3  H3  Y00 A 601     -34.214 -16.474  25.847  1.00  0.00     0.000 HD 
HETATM    4  C15 Y00 A 601     -31.212 -16.867  27.004  1.00  0.00    -0.386 A  
HETATM    5  C14 Y00 A 601     -29.881 -16.607  26.680  1.00  0.00    -0.366 A  
HETATM    6  C13 Y00 A 601     -29.574 -15.971  25.470  1.00  0.00    -0.480 A  
HETATM    7  C18 Y00 A 601     -30.605 -15.598  24.599  1.00  0.00    -0.590 A  
HETATM    8  C17 Y00 A 601     -31.933 -15.858  24.925  1.00  0.00    -0.307 A  
ENDROOT
BRANCH   6   9
HETATM    9  C12 Y00 A 601     -28.144 -15.656  25.067  1.00  0.00    -0.556 C  
BRANCH   9  10
HETATM   10  C11 Y00 A 601     -27.113 -16.400  25.907  1.00  0.00    -0.480 C  
BRANCH  10  11
HETATM   11  C9  Y00 A 601     -25.703 -16.275  25.338  1.00  0.00    -0.393 C  
HETATM   12  C10 Y00 A 601     -25.527 -17.034  24.023  1.00  0.00    -0.700 C  
BRANCH  11  13
HETATM   13  N1  Y00 A 601     -25.320 -14.885  25.195  1.00  0.00    -0.705 NA 
HETATM   14  H1  Y00 A 601     -26.004 -14.174  24.937  1.00  0.00     0.000 HD 
BRANCH  13  15
HETATM   15  C8  Y00 A 601     -23.927 -14.537  25.432  1.00  0.00    -0.331 C  
BRANCH  15  16
HETATM   16  C1  Y00 A 601     -23.748 -13.064  25.758  1.00  0.00    -0.467 C  
BRANCH  16  17
HETATM   17  C2  Y00 A 601     -22.302 -12.695  25.988  1.00  0.00    -0.503 A  
HETATM   18  C7  Y00 A 601     -21.636 -13.146  27.129  1.00  0.00    -0.659 A  
HETATM   19  C6  Y00 A 601     -20.313 -12.783  27.314  1.00  0.00    -0.434 A  
HETATM   20  C5  Y00 A 601     -19.638 -11.929  26.312  1.00  0.00    -0.442 A  
HETATM   21  O1  Y00 A 601     -19.627 -13.202  28.407  1.00  0.00    -0.620 OA 
HETATM   22  H1  Y00 A 601     -18.719 -12.953  28.534  1.00  0.00     0.000 HD 
HETATM   23  O2  Y00 A 601     -18.336 -11.584  26.501  1.00  0.00    -0.669 OA 
HETATM   24  C4  Y00 A 601     -20.332 -11.494  25.193  1.00  0.00    -0.719 A  
HETATM   25  H2  Y00 A 601     -17.903 -11.036  25.857  1.00  0.00     0.000 HD 
HETATM   26  C3  Y00 A 601     -21.656 -11.885  25.039  1.00  0.00    -0.713 A  
ENDBRANCH  16  17
ENDBRANCH  15  16
ENDBRANCH  13  15
ENDBRANCH  11  13
ENDBRANCH  10  11
ENDBRANCH   9  10
ENDBRANCH   6   9
TORSDOF 7
ENDMDL
