MODEL        1
REMARK THIS MODEL IS IDENTICAL TO THE INPUT LIGAND AND NOT FROM DOCKING
REMARK 921   NORMALIZED FREE ENERGY PREDICTED BY IDOCK:   -8.65 KCAL/MOL
REMARK 922        TOTAL FREE ENERGY PREDICTED BY IDOCK:  -11.60 KCAL/MOL
REMARK 923 INTER-LIGAND FREE ENERGY PREDICTED BY IDOCK:  -11.18 KCAL/MOL
REMARK 924 INTRA-LIGAND FREE ENERGY PREDICTED BY IDOCK:   -0.43 KCAL/MOL
REMARK 927      BINDING AFFINITY PREDICTED BY RF-SCORE:    0.00 PKD
ROOT
HETATM    1  N3  XTK A 501      25.211  52.119   9.997  1.00  0.00    -0.679 NA 
HETATM    2  C16 XTK A 501      24.893  53.120  10.505  1.00  0.00    -0.513 C  
HETATM    3  C1  XTK A 501      24.536  54.295  11.033  1.00  0.00    -0.438 A  
HETATM    4  N1  XTK A 501      23.902  55.253  10.328  1.00  0.00    -0.609 NA 
HETATM    5  C8  XTK A 501      23.669  56.297  11.158  1.00  0.00    -0.411 A  
HETATM    6  H1  XTK A 501      23.643  55.201   9.343  1.00  0.00     0.000 HD 
HETATM    7  C3  XTK A 501      24.197  55.921  12.485  1.00  0.00    -0.628 A  
HETATM    8  C2  XTK A 501      24.752  54.611  12.363  1.00  0.00    -0.622 A  
HETATM    9  C4  XTK A 501      24.050  56.906  13.594  1.00  0.00    -0.473 A  
HETATM   10  C5  XTK A 501      23.429  58.144  13.349  1.00  0.00    -0.871 A  
HETATM   11  C7  XTK A 501      23.026  57.624  11.006  1.00  0.00    -0.612 A  
HETATM   12  C6  XTK A 501      22.933  58.488  12.091  1.00  0.00    -0.794 A  
HETATM   13  C17 XTK A 501      22.474  58.006   9.670  1.00  0.00    -0.429 C  
ENDROOT
BRANCH   9  14
HETATM   14  O1  XTK A 501      24.545  56.565  14.825  1.00  0.00    -0.279 OA 
BRANCH  14  15
HETATM   15  C9  XTK A 501      24.206  57.254  16.029  1.00  0.00    -0.508 C  
BRANCH  15  16
HETATM   16  C10 XTK A 501      24.384  56.340  17.224  1.00  0.00    -0.524 C  
HETATM   17  H2  XTK A 501      24.557  57.860  18.505  1.00  0.00     0.000 HD 
HETATM   18  O2  XTK A 501      24.023  57.083  18.391  1.00  0.00     0.113 OA 
BRANCH  16  19
HETATM   19  C11 XTK A 501      23.523  55.088  17.041  1.00  0.00    -0.251 C  
BRANCH  19  20
HETATM   20  N2  XTK A 501      23.428  54.333  18.275  1.00  0.00    -0.622 NA 
HETATM   21  C12 XTK A 501      22.972  52.948  18.314  1.00  0.00    -0.350 C  
HETATM   22  H2  XTK A 501      23.690  54.788  19.150  1.00  0.00     0.000 HD 
HETATM   23  C15 XTK A 501      24.067  52.063  17.704  1.00  0.00    -0.564 C  
HETATM   24  C13 XTK A 501      21.663  52.839  17.533  1.00  0.00    -0.640 C  
HETATM   25  C14 XTK A 501      22.683  52.556  19.766  1.00  0.00    -0.473 C  
ENDBRANCH  19  20
ENDBRANCH  16  19
ENDBRANCH  15  16
ENDBRANCH  14  15
ENDBRANCH   9  14
TORSDOF 5
ENDMDL
