REMARK  4 active torsions:
REMARK  status: ('A' for Active; 'I' for Inactive)
REMARK    1  A    between atoms: CAV_3  and  CAO_8
REMARK    2  A    between atoms: NAP_11  and  CAN_14
REMARK    3  A    between atoms: CAN_14  and  CAZ_15
REMARK    4  A    between atoms: CAZ_15  and  CAW_18
ROOT
HETATM    1  CAA P0G A 366      68.580  13.309  13.113  1.00  0.00     0.044 C
HETATM    2  CAT P0G A 366      68.071  13.678  14.514  1.00  0.00    -0.047 A
HETATM    3  CAV P0G A 366      66.701  13.925  14.777  1.00  0.00    -0.043 A
HETATM    4  CAI P0G A 366      69.038  13.786  15.528  1.00  0.00     0.003 A
HETATM    5  CAJ P0G A 366      66.343  14.274  16.084  1.00  0.00     0.004 A
HETATM    6  CAG P0G A 366      68.665  14.126  16.825  1.00  0.00     0.000 A
HETATM    7  CAH P0G A 366      67.313  14.375  17.089  1.00  0.00     0.000 A
ENDROOT
BRANCH   3   8
HETATM    8  CAO P0G A 366      65.539  13.823  13.758  1.00  0.00     0.057 C
HETATM    9  CAC P0G A 366      65.558  16.391  13.896  1.00  0.00     0.027 C
HETATM   10  CAB P0G A 366      65.780  15.215  11.692  1.00  0.00     0.027 C
HETATM   11  NAP P0G A 366      63.661  15.202  12.928  1.00  0.00    -0.308 NA
HETATM   12  HAP P0G A 366      63.277  14.288  12.687  1.00  0.00     0.123 HD
HETATM   13  CBA P0G A 366      65.133  15.155  13.080  1.00  0.00     0.018 C
BRANCH  11  14
HETATM   14  CAN P0G A 366      63.265  16.238  11.947  1.00  0.00     0.117 C
BRANCH  14  15
HETATM   15  CAZ P0G A 366      61.963  16.946  12.343  1.00  0.00     0.161 C
HETATM   16  HAF P0G A 366      60.132  16.387  12.607  1.00  0.00     0.210 HD
HETATM   17  OAF P0G A 366      60.938  15.948  12.362  1.00  0.00    -0.386 OA
BRANCH  15  18
HETATM   18  CAW P0G A 366      61.637  18.061  11.305  1.00  0.00     0.014 A
HETATM   19  CAL P0G A 366      60.505  17.910  10.509  1.00  0.00     0.011 A
HETATM   20  CAK P0G A 366      60.182  18.867   9.556  1.00  0.00     0.034 A
HETATM   21  CAU P0G A 366      60.995  19.976   9.353  1.00  0.00     0.093 A
HETATM   22  CAX P0G A 366      62.113  20.165  10.152  1.00  0.00     0.083 A
HETATM   23  OAE P0G A 366      60.698  20.876   8.379  1.00  0.00    -0.358 OA
HETATM   24  HAE P0G A 366      61.254  21.634   8.240  1.00  0.00     0.217 HD
HETATM   25  NAQ P0G A 366      62.923  21.298   9.919  1.00  0.00    -0.219 N
HETATM   26  HAQ P0G A 366      62.767  21.880   9.096  1.00  0.00     0.137 HD
HETATM   27  CAS P0G A 366      63.940  21.617  10.822  1.00  0.00     0.252 C
HETATM   28  OAD P0G A 366      64.678  22.589  10.630  1.00  0.00    -0.272 OA
HETATM   29  CAM P0G A 366      64.091  20.781  11.937  1.00  0.00     0.200 C
HETATM   30  OAR P0G A 366      63.564  19.409  11.934  1.00  0.00    -0.310 OA
HETATM   31  CAY P0G A 366      62.443  19.216  11.144  1.00  0.00     0.109 A
ENDBRANCH  15  18
ENDBRANCH  14  15
ENDBRANCH  11  14
ENDBRANCH   3   8
TORSDOF 4
