MODEL        1
REMARK THIS MODEL IS IDENTICAL TO THE INPUT LIGAND AND NOT FROM DOCKING
REMARK 921   NORMALIZED FREE ENERGY PREDICTED BY IDOCK:   -7.61 KCAL/MOL
REMARK 922        TOTAL FREE ENERGY PREDICTED BY IDOCK:  -10.98 KCAL/MOL
REMARK 923 INTER-LIGAND FREE ENERGY PREDICTED BY IDOCK:  -11.61 KCAL/MOL
REMARK 924 INTRA-LIGAND FREE ENERGY PREDICTED BY IDOCK:    0.63 KCAL/MOL
REMARK 927      BINDING AFFINITY PREDICTED BY RF-SCORE:    0.00 PKD
ROOT
HETATM    1  O4  ML5 A1201       1.859  15.406 -15.112  1.00  0.00    -0.418 OA 
HETATM    2  P1  ML5 A1201       2.958  15.961 -14.230  1.00  0.00    -0.346 P  
HETATM    3  C16 ML5 A1201       3.339  14.620 -13.065  1.00  0.00    -0.388 C  
HETATM    4  O2  ML5 A1201       4.257  16.223 -14.961  1.00  0.00    -0.486 OA 
HETATM    5  O3  ML5 A1201       2.513  17.100 -13.343  1.00  0.00    -0.291 OA 
ENDROOT
BRANCH   3   6
HETATM    6  C15 ML5 A1201       4.228  15.142 -11.935  1.00  0.00    -0.402 C  
BRANCH   6   7
HETATM    7  C14 ML5 A1201       3.498  16.070 -10.953  1.00  0.00    -0.359 C  
HETATM    8  H21 ML5 A1201       1.542  16.440 -10.277  1.00  0.00     0.000 HD 
HETATM    9  N2  ML5 A1201       2.027  15.824 -10.929  1.00  0.00    -1.022 NA 
HETATM   10  H22 ML5 A1201       1.820  14.845 -10.733  1.00  0.00     0.000 HD 
BRANCH   7  11
HETATM   11  C13 ML5 A1201       4.104  15.918  -9.586  1.00  0.00    -0.501 C  
HETATM   12  O1  ML5 A1201       3.974  14.863  -8.984  1.00  0.00    -0.462 OA 
HETATM   13  N1  ML5 A1201       4.792  16.977  -9.133  1.00  0.00    -0.373 N  
HETATM   14  H1  ML5 A1201       5.046  17.692  -9.814  1.00  0.00     0.000 HD 
BRANCH  13  15
HETATM   15  C5  ML5 A1201       5.183  17.183  -7.838  1.00  0.00    -0.092 A  
HETATM   16  C6  ML5 A1201       5.856  18.372  -7.530  1.00  0.00    -0.371 A  
HETATM   17  C1  ML5 A1201       6.314  18.621  -6.233  1.00  0.00    -0.336 A  
HETATM   18  C2  ML5 A1201       6.067  17.694  -5.218  1.00  0.00    -0.574 A  
HETATM   19  C3  ML5 A1201       5.409  16.496  -5.517  1.00  0.00    -0.574 A  
HETATM   20  C4  ML5 A1201       4.971  16.239  -6.821  1.00  0.00    -0.619 A  
BRANCH  17  21
HETATM   21  C7  ML5 A1201       6.996  19.936  -5.924  1.00  0.00    -0.516 C  
BRANCH  21  22
HETATM   22  C8  ML5 A1201       8.438  19.706  -5.492  1.00  0.00    -0.725 C  
BRANCH  22  23
HETATM   23  C9  ML5 A1201       9.242  20.998  -5.618  1.00  0.00    -0.721 C  
BRANCH  23  24
HETATM   24  C10 ML5 A1201      10.511  20.780  -6.434  1.00  0.00    -0.665 C  
BRANCH  24  25
HETATM   25  C11 ML5 A1201      11.750  21.017  -5.582  1.00  0.00    -0.594 C  
HETATM   26  C12 ML5 A1201      12.527  22.221  -6.067  1.00  0.00    -0.779 C  
ENDBRANCH  24  25
ENDBRANCH  23  24
ENDBRANCH  22  23
ENDBRANCH  21  22
ENDBRANCH  17  21
ENDBRANCH  13  15
ENDBRANCH   7  11
ENDBRANCH   6   7
ENDBRANCH   3   6
TORSDOF 9
ENDMDL
