REMARK  5 active torsions:
REMARK  status: ('A' for Active; 'I' for Inactive)
REMARK    1  A    between atoms: C7_2  and  C8_9
REMARK    2  A    between atoms: C8_9  and  C9_10
REMARK    3  A    between atoms: C9_10  and  N10_11
REMARK    4  A    between atoms: N10_11  and  C11_13
REMARK    5  A    between atoms: C20_17  and  C21_25
ROOT
HETATM    1  C1  ZMA A2401      -1.782  13.424  14.632  1.00  0.00     0.006 A
HETATM    2  C7  ZMA A2401      -0.913  12.421  15.034  1.00  0.00    -0.046 A
HETATM    3  O4  ZMA A2401       0.154  16.422  15.369  1.00  0.00    -0.360 OA
HETATM    4  C6  ZMA A2401       0.332  12.786  15.519  1.00  0.00     0.006 A
HETATM    5  C2  ZMA A2401      -1.430  14.758  14.732  1.00  0.00     0.033 A
HETATM    6  C5  ZMA A2401       0.698  14.116  15.624  1.00  0.00     0.033 A
HETATM    7  H4  ZMA A2401       1.006  16.661  15.715  1.00  0.00     0.217 HD
HETATM    8  C3  ZMA A2401      -0.188  15.107  15.237  1.00  0.00     0.073 A
ENDROOT
BRANCH   2   9
HETATM    9  C8  ZMA A2401      -1.339  10.973  15.009  1.00  0.00     0.050 C
BRANCH   9  10
HETATM   10  C9  ZMA A2401      -2.316  10.663  16.122  1.00  0.00     0.094 C
BRANCH  10  11
HETATM   11  N10 ZMA A2401      -2.561   9.236  16.273  1.00  0.00    -0.256 NA
HETATM   12  H10 ZMA A2401      -3.444   8.864  15.923  1.00  0.00     0.131 HD
BRANCH  11  13
HETATM   13  C11 ZMA A2401      -1.679   8.357  16.857  1.00  0.00     0.207 C
HETATM   14  N12 ZMA A2401      -2.085   7.037  17.027  1.00  0.00    -0.185 NA
HETATM   15  C18 ZMA A2401      -1.208   6.227  17.642  1.00  0.00     0.236 A
HETATM   16  N19 ZMA A2401      -1.352   4.944  17.975  1.00  0.00    -0.192 NA
HETATM   17  C20 ZMA A2401      -0.150   4.651  18.580  1.00  0.00     0.201 A
HETATM   18  N17 ZMA A2401       0.722   5.651  18.650  1.00  0.00    -0.161 NA
HETATM   19 2H15 ZMA A2401       1.813   9.429  18.142  1.00  0.00     0.126 HD
HETATM   20 1H15 ZMA A2401       2.232   7.818  18.734  1.00  0.00     0.126 HD
HETATM   21  N16 ZMA A2401       0.028   6.668  18.052  1.00  0.00    -0.072 NA
HETATM   22  N15 ZMA A2401       1.570   8.448  18.281  1.00  0.00    -0.275 NA
HETATM   23  C14 ZMA A2401       0.385   7.988  17.870  1.00  0.00     0.184 C
HETATM   24  N13 ZMA A2401      -0.480   8.811  17.278  1.00  0.00    -0.192 NA
BRANCH  17  25
HETATM   25  C21 ZMA A2401       0.142   3.313  19.052  1.00  0.00     0.128 A
HETATM   26  C23 ZMA A2401       0.331   1.172  19.615  1.00  0.00     0.028 A
HETATM   27  C22 ZMA A2401      -0.567   2.168  19.130  1.00  0.00     0.039 A
HETATM   28  O25 ZMA A2401       1.429   3.094  19.459  1.00  0.00    -0.313 OA
HETATM   29  C24 ZMA A2401       1.502   1.767  19.793  1.00  0.00     0.136 A
ENDBRANCH  17  25
ENDBRANCH  11  13
ENDBRANCH  10  11
ENDBRANCH   9  10
ENDBRANCH   2   9
TORSDOF 5
