MODEL        1
REMARK THIS MODEL IS IDENTICAL TO THE INPUT LIGAND AND NOT FROM DOCKING
REMARK 921   NORMALIZED FREE ENERGY PREDICTED BY IDOCK:   -8.44 KCAL/MOL
REMARK 922        TOTAL FREE ENERGY PREDICTED BY IDOCK:  -13.50 KCAL/MOL
REMARK 923 INTER-LIGAND FREE ENERGY PREDICTED BY IDOCK:  -12.88 KCAL/MOL
REMARK 924 INTRA-LIGAND FREE ENERGY PREDICTED BY IDOCK:   -0.62 KCAL/MOL
REMARK 927      BINDING AFFINITY PREDICTED BY RF-SCORE:    0.00 PKD
ROOT
HETATM    1  C10 7MA A2001      38.452  38.649 -50.444  1.00  0.00    -0.714 A  
HETATM    2  C05 7MA A2001      39.481  38.828 -51.363  1.00  0.00    -0.621 A  
HETATM    3  C08 7MA A2001      39.864  39.400 -48.649  1.00  0.00    -0.471 A  
HETATM    4  C06 7MA A2001      40.709  39.296 -50.902  1.00  0.00    -0.338 A  
HETATM    5  N07 7MA A2001      40.905  39.580 -49.549  1.00  0.00    -0.366 NA 
HETATM    6  C09 7MA A2001      38.641  38.923 -49.102  1.00  0.00    -0.706 A  
ENDROOT
BRANCH   2   7
HETATM    7  C04 7MA A2001      39.254  38.532 -52.721  1.00  0.00    -0.348 C  
BRANCH   7   8
HETATM    8  N03 7MA A2001      40.519  38.450 -53.467  1.00  0.00    -0.274 N  
HETATM    9  O12 7MA A2001      40.122  40.444 -54.436  1.00  0.00    -0.302 OA 
HETATM   10  C11 7MA A2001      40.840  39.462 -54.319  1.00  0.00    -0.277 C  
BRANCH   8  11
HETATM   11  C02 7MA A2001      41.328  37.214 -53.307  1.00  0.00    -0.360 C  
HETATM   12  C01 7MA A2001      40.658  36.128 -54.139  1.00  0.00    -0.662 C  
ENDBRANCH   8  11
BRANCH  10  13
HETATM   13  C13 7MA A2001      42.156  39.359 -55.101  1.00  0.00    -0.257 C  
BRANCH  13  14
HETATM   14  N14 7MA A2001      43.223  39.557 -54.121  1.00  0.00    -0.252 N  
BRANCH  14  15
HETATM   15  C15 7MA A2001      43.350  40.823 -53.668  1.00  0.00    -0.272 A  
HETATM   16  C18 7MA A2001      43.650  43.303 -52.468  1.00  0.00    -0.381 A  
HETATM   17  C20 7MA A2001      43.311  41.968 -54.476  1.00  0.00    -0.302 A  
HETATM   18  C16 7MA A2001      43.546  40.944 -52.294  1.00  0.00    -0.211 A  
HETATM   19  N17 7MA A2001      43.700  42.194 -51.703  1.00  0.00    -0.349 NA 
HETATM   20  C19 7MA A2001      43.459  43.212 -53.861  1.00  0.00    -0.188 A  
BRANCH  16  21
HETATM   21  O21 7MA A2001      43.798  44.513 -51.882  1.00  0.00    -0.448 OA 
HETATM   22  C22 7MA A2001      44.008  44.368 -50.474  1.00  0.00    -0.534 C  
ENDBRANCH  16  21
ENDBRANCH  14  15
BRANCH  14  23
HETATM   23  S23 7MA A2001      44.614  38.912 -54.618  1.00  0.00    -0.329 S  
HETATM   24  O24 7MA A2001      44.252  37.539 -55.187  1.00  0.00    -0.359 OA 
HETATM   25  O25 7MA A2001      45.572  38.728 -53.461  1.00  0.00    -0.346 OA 
BRANCH  23  26
HETATM   26  C26 7MA A2001      45.441  39.864 -55.880  1.00  0.00    -0.383 A  
HETATM   27  C32 7MA A2001      46.741  41.289 -54.314  1.00  0.00    -0.548 C  
HETATM   28  C27 7MA A2001      45.157  39.539 -57.200  1.00  0.00    -0.452 A  
HETATM   29  C29 7MA A2001      46.679  41.224 -57.962  1.00  0.00    -0.483 A  
HETATM   30  C30 7MA A2001      46.978  41.558 -56.655  1.00  0.00    -0.459 A  
HETATM   31  C28 7MA A2001      45.766  40.221 -58.238  1.00  0.00    -0.433 A  
HETATM   32  C31 7MA A2001      46.370  40.885 -55.600  1.00  0.00    -0.452 A  
ENDBRANCH  23  26
ENDBRANCH  14  23
ENDBRANCH  13  14
ENDBRANCH  10  13
ENDBRANCH   7   8
ENDBRANCH   2   7
TORSDOF 9
ENDMDL
