REMARK  4 active torsions:
REMARK  status: ('A' for Active; 'I' for Inactive)
REMARK    1  A    between atoms: C6_3  and  C7_10
REMARK    2  A    between atoms: C8_11  and  C9_12
REMARK    3  A    between atoms: C10_13  and  C11_15
REMARK    4  A    between atoms: C12_16  and  C13_17
ROOT
HETATM    1  C1  RET A1296      62.571   7.054 -11.020  1.00  0.00    -0.010 C
HETATM    2  C17 RET A1296      61.672   5.884 -11.588  1.00  0.00     0.016 C
HETATM    3  C6  RET A1296      61.862   8.321 -10.651  1.00  0.00    -0.043 C
HETATM    4  C16 RET A1296      63.656   7.301 -12.067  1.00  0.00     0.016 C
HETATM    5  C5  RET A1296      61.971   8.915  -9.410  1.00  0.00    -0.069 C
HETATM    6  C2  RET A1296      63.306   6.294  -9.803  1.00  0.00     0.011 C
HETATM    7  C18 RET A1296      61.594  10.389  -9.078  1.00  0.00     0.039 C
HETATM    8  C4  RET A1296      62.540   8.191  -8.219  1.00  0.00     0.031 C
HETATM    9  C3  RET A1296      63.704   7.223  -8.673  1.00  0.00     0.005 C
ENDROOT
BRANCH   3  10
HETATM   10  C7  RET A1296      61.027   8.841 -11.781  1.00  0.00     0.004 C
HETATM   11  C8  RET A1296      59.672   9.059 -11.637  1.00  0.00     0.003 C
BRANCH  11  12
HETATM   12  C9  RET A1296      58.702   9.755 -12.527  1.00  0.00    -0.050 C
HETATM   13  C10 RET A1296      57.580  10.353 -12.068  1.00  0.00     0.003 C
HETATM   14  C19 RET A1296      59.087   9.731 -13.969  1.00  0.00     0.044 C
BRANCH  13  15
HETATM   15  C11 RET A1296      56.601  11.124 -12.843  1.00  0.00     0.001 C
HETATM   16  C12 RET A1296      55.300  11.404 -12.574  1.00  0.00     0.003 C
BRANCH  16  17
HETATM   17  C13 RET A1296      54.311  11.257 -11.463  1.00  0.00    -0.055 C
HETATM   18  C14 RET A1296      53.241  12.102 -11.431  1.00  0.00    -0.027 C
HETATM   19  C20 RET A1296      54.540  10.145 -10.464  1.00  0.00     0.043 C
HETATM   20  C15 RET A1296      52.549  12.703 -10.250  1.00  0.00     0.035 C
ENDBRANCH  16  17
ENDBRANCH  13  15
ENDBRANCH  11  12
ENDBRANCH   3  10
TORSDOF 4
