MODEL        1
REMARK THIS MODEL IS IDENTICAL TO THE INPUT LIGAND AND NOT FROM DOCKING
REMARK 921   NORMALIZED FREE ENERGY PREDICTED BY IDOCK:  -13.74 KCAL/MOL
REMARK 922        TOTAL FREE ENERGY PREDICTED BY IDOCK:  -23.18 KCAL/MOL
REMARK 923 INTER-LIGAND FREE ENERGY PREDICTED BY IDOCK:  -21.77 KCAL/MOL
REMARK 924 INTRA-LIGAND FREE ENERGY PREDICTED BY IDOCK:   -1.41 KCAL/MOL
REMARK 927      BINDING AFFINITY PREDICTED BY RF-SCORE:    0.00 PKD
ROOT
HETATM    1  N1  8EM A1501     107.434 -74.005   4.783  1.00  0.00    -0.259 N  
HETATM    2  C6  8EM A1501     106.120 -73.850   4.318  1.00  0.00    -0.294 C  
HETATM    3  C22 8EM A1501     103.632 -77.250   4.803  1.00  0.00    -0.622 A  
HETATM    4  C23 8EM A1501     103.080 -76.056   4.323  1.00  0.00    -0.230 A  
HETATM    5  C   8EM A1501     105.266 -75.035   4.443  1.00  0.00    -0.492 A  
HETATM    6  O   8EM A1501     105.760 -72.798   3.815  1.00  0.00    -0.294 OA 
HETATM    7  C1  8EM A1501     105.807 -76.221   4.952  1.00  0.00    -0.312 A  
HETATM    8  C24 8EM A1501     103.909 -74.950   4.131  1.00  0.00    -0.354 A  
HETATM    9  C21 8EM A1501     104.979 -77.331   5.116  1.00  0.00    -0.769 A  
HETATM   10  C2  8EM A1501     107.865 -75.246   5.262  1.00  0.00    -0.374 C  
HETATM   11  N   8EM A1501     107.137 -76.311   5.353  1.00  0.00    -0.380 NA 
ENDROOT
BRANCH   1  12
HETATM   12  C7  8EM A1501     108.292 -72.803   4.811  1.00  0.00    -0.360 C  
BRANCH  12  13
HETATM   13  C8  8EM A1501     107.917 -71.789   5.872  1.00  0.00    -0.318 A  
HETATM   14  C19 8EM A1501     106.830 -71.196   7.952  1.00  0.00    -0.353 A  
HETATM   15  C20 8EM A1501     107.195 -72.145   7.012  1.00  0.00    -0.325 A  
HETATM   16  C11 8EM A1501     107.168 -69.854   7.786  1.00  0.00    -0.458 A  
HETATM   17  C10 8EM A1501     107.904 -69.509   6.653  1.00  0.00    -0.484 A  
HETATM   18  C9  8EM A1501     108.273 -70.458   5.719  1.00  0.00    -0.507 A  
BRANCH  16  19
HETATM   19  C12 8EM A1501     106.774 -68.819   8.785  1.00  0.00    -0.584 A  
HETATM   20  C17 8EM A1501     107.488 -66.949  10.156  1.00  0.00    -0.647 A  
HETATM   21  C16 8EM A1501     106.176 -66.650  10.458  1.00  0.00    -0.538 A  
HETATM   22  C13 8EM A1501     105.436 -68.523   9.127  1.00  0.00    -0.512 A  
HETATM   23  C18 8EM A1501     107.786 -68.021   9.331  1.00  0.00    -0.607 A  
HETATM   24  C15 8EM A1501     105.149 -67.426   9.948  1.00  0.00    -0.389 A  
BRANCH  22  25
HETATM   25  C14 8EM A1501     104.256 -69.371   8.708  1.00  0.00    -0.379 A  
HETATM   26  N4  8EM A1501     102.483 -70.557   8.776  1.00  0.00    -0.797 NA 
HETATM   27  N5  8EM A1501     103.369 -69.905   9.560  1.00  0.00    -0.600 NA 
HETATM   28  N3  8EM A1501     102.828 -70.418   7.519  1.00  0.00    -0.511 NA 
HETATM   29  H2  8EM A1501     104.458 -69.391   6.598  1.00  0.00     0.000 HD 
HETATM   30  N2  8EM A1501     103.953 -69.668   7.440  1.00  0.00    -0.170 NA 
ENDBRANCH  22  25
ENDBRANCH  16  19
ENDBRANCH  12  13
ENDBRANCH   1  12
BRANCH  10  31
HETATM   31  C3  8EM A1501     109.272 -75.379   5.736  1.00  0.00    -0.724 C  
BRANCH  31  32
HETATM   32  C4  8EM A1501     110.211 -75.937   4.687  1.00  0.00    -0.777 C  
HETATM   33  C5  8EM A1501     111.452 -76.546   5.297  1.00  0.00    -1.205 C  
ENDBRANCH  31  32
ENDBRANCH  10  31
BRANCH   4  34
HETATM   34  N6  8EM A1501     101.680 -75.974   4.024  1.00  0.00    -0.236 N  
HETATM   35  O1  8EM A1501      99.546 -76.292   4.669  1.00  0.00    -0.014 OA 
HETATM   36  C25 8EM A1501     100.690 -76.005   4.970  1.00  0.00    -0.271 C  
BRANCH  34  37
HETATM   37  C32 8EM A1501     101.284 -76.040   2.622  1.00  0.00    -0.292 C  
BRANCH  37  38
HETATM   38  C33 8EM A1501     101.462 -77.419   2.088  1.00  0.00    -0.352 A  
HETATM   39  C34 8EM A1501     102.250 -77.946   1.142  1.00  0.00    -0.478 A  
HETATM   40  O2  8EM A1501     100.704 -78.405   2.659  1.00  0.00    -0.386 OA 
HETATM   41  C36 8EM A1501     101.054 -79.573   2.028  1.00  0.00    -0.397 A  
HETATM   42  C35 8EM A1501     101.980 -79.345   1.114  1.00  0.00    -0.728 A  
ENDBRANCH  37  38
ENDBRANCH  34  37
BRANCH  36  43
HETATM   43  C26 8EM A1501     100.955 -75.608   6.395  1.00  0.00    -0.441 A  
HETATM   44  C29 8EM A1501     101.376 -75.166   9.125  1.00  0.00    -0.640 A  
HETATM   45  C27 8EM A1501     100.032 -76.062   7.344  1.00  0.00    -0.481 A  
HETATM   46  C28 8EM A1501     100.248 -75.845   8.697  1.00  0.00    -0.525 A  
HETATM   47  C30 8EM A1501     102.295 -74.703   8.195  1.00  0.00    -0.496 A  
HETATM   48  C31 8EM A1501     102.093 -74.927   6.840  1.00  0.00    -0.413 A  
ENDBRANCH  36  43
ENDBRANCH   4  34
TORSDOF 10
ENDMDL
