REMARK  5 active torsions:
REMARK  status: ('A' for Active; 'I' for Inactive)
REMARK    1  A    between atoms: C10_3  and  C9_4
REMARK    2  A    between atoms: C10_3  and  C11_18
REMARK    3  A    between atoms: C9_4  and  O1_5
REMARK    4  A    between atoms: C11_18  and  N2_19
REMARK    5  A    between atoms: O1_5  and  C4_6
ROOT
HETATM    1  O2  P32 A1355      54.433 -19.466 -26.915  1.00  0.00    -0.388 OA
HETATM    2  H2  P32 A1355      54.061 -19.273 -27.768  1.00  0.00     0.210 HD
HETATM    3  C10 P32 A1355      53.507 -20.164 -26.125  1.00  0.00     0.154 C
ENDROOT
BRANCH   3   4
HETATM    4  C9  P32 A1355      52.273 -19.281 -25.913  1.00  0.00     0.199 C
BRANCH   4   5
HETATM    5  O1  P32 A1355      51.303 -20.003 -25.192  1.00  0.00    -0.346 OA
BRANCH   5   6
HETATM    6  C4  P32 A1355      50.074 -19.414 -24.857  1.00  0.00     0.062 C
HETATM    7  C5  P32 A1355      49.845 -17.910 -25.028  1.00  0.00     0.061 C
HETATM    8  C6  P32 A1355      48.488 -17.286 -24.653  1.00  0.00     0.012 C
HETATM    9  C7  P32 A1355      47.357 -18.155 -24.113  1.00  0.00     0.048 C
HETATM   10  C8  P32 A1355      47.594 -19.662 -23.943  1.00  0.00     0.007 A
HETATM   11  N1  P32 A1355      46.702 -20.739 -23.446  1.00  0.00    -0.253 NA
HETATM   12  H1  P32 A1355      45.740 -20.623 -23.126  1.00  0.00     0.134 HD
HETATM   13  C1  P32 A1355      47.470 -22.032 -23.499  1.00  0.00     0.098 A
HETATM   14  C2  P32 A1355      48.860 -21.741 -24.039  1.00  0.00     0.042 A
HETATM   15  C16 P32 A1355      46.966 -23.315 -23.108  1.00  0.00     0.111 C
HETATM   16  N3  P32 A1355      46.598 -24.349 -22.803  1.00  0.00    -0.190 NA
HETATM   17  C3  P32 A1355      48.943 -20.285 -24.310  1.00  0.00     0.017 A
ENDBRANCH   5   6
ENDBRANCH   4   5
ENDBRANCH   3   4
BRANCH   3  18
HETATM   18  C11 P32 A1355      54.110 -20.477 -24.742  1.00  0.00     0.115 C
BRANCH  18  19
HETATM   19  N2  P32 A1355      55.512 -20.939 -24.722  1.00  0.00    -0.309 NA
HETATM   20  H2  P32 A1355      56.136 -20.164 -24.497  1.00  0.00     0.123 HD
HETATM   21  C14 P32 A1355      54.699 -23.214 -23.960  1.00  0.00     0.027 C
HETATM   22  C12 P32 A1355      55.778 -22.100 -23.814  1.00  0.00     0.011 C
HETATM   23  C13 P32 A1355      57.153 -22.723 -24.165  1.00  0.00     0.027 C
HETATM   24  C15 P32 A1355      55.863 -21.635 -22.338  1.00  0.00     0.027 C
ENDBRANCH  18  19
ENDBRANCH   3  18
TORSDOF 5
