REMARK 13 active torsions:
REMARK  status: ('A' for Active; 'I' for Inactive)
REMARK    1  A    between atoms: S1_1  and  N1_4
REMARK    2  A    between atoms: S1_1  and  C1_42
REMARK    3  A    between atoms: N1_4  and  C4_6
REMARK    4  A    between atoms: C7_10  and  O3_12
REMARK    5  A    between atoms: C9_9  and  O4_21
REMARK    6  A    between atoms: C8_47  and  C11_48
REMARK    7  A    between atoms: O3_12  and  C12_13
REMARK    8  A    between atoms: O4_21  and  C17_22
REMARK    9  A    between atoms: C17_22  and  C20_23
REMARK   10  A    between atoms: C18_14  and  O5_19
REMARK   11  A    between atoms: C10_7  and  C13_36
REMARK   12  A    between atoms: C20_23  and  C25_24
REMARK   13  A    between atoms: N6_27  and  C29_28
ROOT
HETATM    1  S1  K87 A1201       4.115  47.578  -1.456  1.00  0.00     2.571 S
HETATM    2  O1  K87 A1201       4.059  48.263  -2.718  1.00  0.00    -0.924 OA
HETATM    3  O2  K87 A1201       5.237  47.794  -0.585  1.00  0.00    -0.924 OA
ENDROOT
BRANCH   1   4
HETATM    4  N1  K87 A1201       4.059  45.994  -1.827  1.00  0.00    -0.823 N
HETATM    5  H1  K87 A1201       4.880  45.428  -1.613  1.00  0.00     0.253 HD
BRANCH   4   6
HETATM    6  C4  K87 A1201       3.030  45.392  -2.384  1.00  0.00     0.235 A
HETATM    7  C10 K87 A1201       0.853  45.486  -3.101  1.00  0.00     0.202 A
HETATM    8  N3  K87 A1201       0.822  44.220  -3.502  1.00  0.00    -0.198 NA
HETATM    9  C9  K87 A1201       1.940  43.517  -3.355  1.00  0.00     0.205 A
HETATM   10  C7  K87 A1201       3.097  44.054  -2.793  1.00  0.00     0.180 A
HETATM   11  N2  K87 A1201       1.902  46.094  -2.551  1.00  0.00    -0.199 NA
BRANCH  10  12
HETATM   12  O3  K87 A1201       4.293  43.296  -2.618  1.00  0.00    -0.299 OA
BRANCH  12  13
HETATM   13  C12 K87 A1201       5.239  43.140  -3.681  1.00  0.00     0.113 A
HETATM   14  C18 K87 A1201       6.231  42.164  -3.527  1.00  0.00     0.106 A
HETATM   15  C19 K87 A1201       5.171  43.919  -4.806  1.00  0.00     0.036 A
HETATM   16  C22 K87 A1201       6.107  43.743  -5.818  1.00  0.00     0.003 A
HETATM   17  C26 K87 A1201       7.090  42.789  -5.692  1.00  0.00     0.003 A
HETATM   18  C21 K87 A1201       7.152  41.999  -4.553  1.00  0.00     0.035 A
BRANCH  14  19
HETATM   19  O5  K87 A1201       6.190  41.410  -2.313  1.00  0.00    -0.345 OA
HETATM   20  C27 K87 A1201       7.146  40.355  -2.164  1.00  0.00     0.202 C
ENDBRANCH  14  19
ENDBRANCH  12  13
ENDBRANCH  10  12
BRANCH   9  21
HETATM   21  O4  K87 A1201       1.914  42.206  -3.783  1.00  0.00    -0.326 OA
BRANCH  21  22
HETATM   22  C17 K87 A1201       0.712  41.771  -4.450  1.00  0.00     0.178 C
BRANCH  22  23
HETATM   23  C20 K87 A1201       0.239  40.533  -3.738  1.00  0.00     0.121 C
BRANCH  23  24
HETATM   24  C25 K87 A1201      -0.504  40.829  -2.455  1.00  0.00     0.207 C
HETATM   25  H6  K87 A1201      -0.416  42.808  -2.886  1.00  0.00     0.136 HD
HETATM   26  O6  K87 A1201      -0.830  39.941  -1.680  1.00  0.00    -0.279 OA
HETATM   27  N6  K87 A1201      -0.786  42.123  -2.227  1.00  0.00    -0.228 N
BRANCH  27  28
HETATM   28  C29 K87 A1201      -1.578  42.625  -1.113  1.00  0.00     0.028 A
HETATM   29  C33 K87 A1201       0.477  43.851  -0.296  1.00  0.00     0.045 C
HETATM   30  C32 K87 A1201      -1.728  43.902   0.901  1.00  0.00     0.005 A
HETATM   31  C30 K87 A1201      -0.964  43.453  -0.173  1.00  0.00    -0.032 A
HETATM   32  C36 K87 A1201      -3.050  43.542   1.029  1.00  0.00     0.001 A
HETATM   33  C34 K87 A1201      -3.640  42.722   0.093  1.00  0.00     0.005 A
HETATM   34  C31 K87 A1201      -2.917  42.239  -0.996  1.00  0.00    -0.032 A
HETATM   35  C35 K87 A1201      -3.584  41.354  -2.009  1.00  0.00     0.045 C
ENDBRANCH  27  28
ENDBRANCH  23  24
ENDBRANCH  22  23
ENDBRANCH  21  22
ENDBRANCH   9  21
BRANCH   7  36
HETATM   36  C13 K87 A1201      -0.410  46.282  -3.236  1.00  0.00     0.198 A
HETATM   37  C23 K87 A1201      -1.461  48.282  -3.142  1.00  0.00     0.115 A
HETATM   38  N4  K87 A1201      -0.320  47.592  -3.034  1.00  0.00    -0.233 NA
HETATM   39  C24 K87 A1201      -2.645  46.320  -3.590  1.00  0.00     0.115 A
HETATM   40  C28 K87 A1201      -2.663  47.682  -3.420  1.00  0.00     0.039 A
HETATM   41  N5  K87 A1201      -1.521  45.599  -3.502  1.00  0.00    -0.233 NA
ENDBRANCH   7  36
ENDBRANCH   4   6
ENDBRANCH   1   4
BRANCH   1  42
HETATM   42  C1  K87 A1201       2.643  47.947  -0.566  1.00  0.00    -0.588 A
HETATM   43  C3  K87 A1201       1.941  49.103  -0.849  1.00  0.00     0.123 A
HETATM   44  C2  K87 A1201       2.168  47.062   0.384  1.00  0.00     0.123 A
HETATM   45  C5  K87 A1201       1.003  47.349   1.069  1.00  0.00     0.022 A
HETATM   46  C6  K87 A1201       0.768  49.379  -0.174  1.00  0.00     0.022 A
HETATM   47  C8  K87 A1201       0.278  48.512   0.802  1.00  0.00    -0.040 A
BRANCH  47  48
HETATM   48  C11 K87 A1201      -1.021  48.823   1.554  1.00  0.00    -0.013 C
HETATM   49  C15 K87 A1201      -2.203  48.098   0.897  1.00  0.00     0.015 C
HETATM   50  C14 K87 A1201      -1.308  50.329   1.536  1.00  0.00     0.015 C
HETATM   51  C16 K87 A1201      -0.924  48.363   3.014  1.00  0.00     0.015 C
ENDBRANCH  47  48
ENDBRANCH   1  42
TORSDOF 13
