REMARK  6 active torsions:
REMARK  status: ('A' for Active; 'I' for Inactive)
REMARK    1  A    between atoms: C16_3  and  C15_4
REMARK    2  A    between atoms: C16_3  and  C18_20
REMARK    3  A    between atoms: C15_4  and  O14_5
REMARK    4  A    between atoms: C18_20  and  N19_21
REMARK    5  A    between atoms: O14_5  and  C13_6
REMARK    6  A    between atoms: N19_21  and  C20_23
ROOT
HETATM    1  O17 CAU A1401       7.575 -29.906 -59.326  1.00  0.00    -0.388 OA
HETATM    2  H17 CAU A1401       6.981 -29.775 -58.596  1.00  0.00     0.210 HD
HETATM    3  C16 CAU A1401       7.125 -31.007 -60.122  1.00  0.00     0.154 C
ENDROOT
BRANCH   3   4
HETATM    4  C15 CAU A1401       7.078 -32.278 -59.270  1.00  0.00     0.200 C
BRANCH   4   5
HETATM    5  O14 CAU A1401       6.644 -33.373 -60.084  1.00  0.00    -0.341 OA
BRANCH   5   6
HETATM    6  C13 CAU A1401       6.491 -34.530 -59.375  1.00  0.00     0.086 A
HETATM    7  C5  CAU A1401       5.503 -34.905 -62.326  1.00  0.00     0.010 A
HETATM    8  C12 CAU A1401       6.858 -34.620 -58.038  1.00  0.00     0.033 A
HETATM    9  C6  CAU A1401       5.010 -35.314 -63.558  1.00  0.00     0.001 A
HETATM   10  H7  CAU A1401       5.028 -38.575 -60.042  1.00  0.00     0.134 HD
HETATM   11  C11 CAU A1401       6.672 -35.828 -57.387  1.00  0.00     0.004 A
HETATM   12  C10 CAU A1401       6.129 -36.884 -58.107  1.00  0.00     0.021 A
HETATM   13  C8  CAU A1401       5.796 -36.739 -59.388  1.00  0.00     0.030 A
HETATM   14  C9  CAU A1401       5.971 -35.578 -60.026  1.00  0.00     0.032 A
HETATM   15  C4  CAU A1401       5.548 -35.741 -61.286  1.00  0.00     0.004 A
HETATM   16  C3  CAU A1401       5.115 -36.997 -61.417  1.00  0.00     0.028 A
HETATM   17  N7  CAU A1401       5.271 -37.605 -60.247  1.00  0.00    -0.257 NA
HETATM   18  C2  CAU A1401       4.632 -37.447 -62.575  1.00  0.00     0.020 A
HETATM   19  C1  CAU A1401       4.563 -36.619 -63.686  1.00  0.00     0.002 A
ENDBRANCH   5   6
ENDBRANCH   4   5
ENDBRANCH   3   4
BRANCH   3  20
HETATM   20  C18 CAU A1401       8.083 -31.218 -61.298  1.00  0.00     0.114 C
BRANCH  20  21
HETATM   21  N19 CAU A1401       8.217 -29.992 -62.099  1.00  0.00    -0.311 NA
HETATM   22  H19 CAU A1401       8.738 -29.268 -61.604  1.00  0.00     0.122 HD
BRANCH  21  23
HETATM   23  C20 CAU A1401       8.815 -30.303 -63.406  1.00  0.00     0.048 C
HETATM   24  C21 CAU A1401      10.198 -30.940 -63.249  1.00  0.00     0.023 C
HETATM   25  C22 CAU A1401       8.933 -29.041 -64.262  1.00  0.00     0.023 C
ENDBRANCH  21  23
ENDBRANCH  20  21
ENDBRANCH   3  20
TORSDOF 6
