MODEL        1
REMARK THIS MODEL IS IDENTICAL TO THE INPUT LIGAND AND NOT FROM DOCKING
REMARK 921   NORMALIZED FREE ENERGY PREDICTED BY IDOCK:  -13.68 KCAL/MOL
REMARK 922        TOTAL FREE ENERGY PREDICTED BY IDOCK:  -17.48 KCAL/MOL
REMARK 923 INTER-LIGAND FREE ENERGY PREDICTED BY IDOCK:  -16.88 KCAL/MOL
REMARK 924 INTRA-LIGAND FREE ENERGY PREDICTED BY IDOCK:   -0.60 KCAL/MOL
REMARK 927      BINDING AFFINITY PREDICTED BY RF-SCORE:    0.00 PKD
ROOT
HETATM    1  C1  ERM A1201      23.004  35.899  49.580  1.00  0.00    -0.364 A  
HETATM    2  C2  ERM A1201      22.825  35.132  50.689  1.00  0.00    -0.605 A  
HETATM    3  C14 ERM A1201      22.406  36.040  51.681  1.00  0.00    -0.655 A  
HETATM    4  C9  ERM A1201      22.087  35.733  53.031  1.00  0.00    -0.596 A  
HETATM    5  C10 ERM A1201      21.689  36.821  53.830  1.00  0.00    -0.518 A  
HETATM    6  C8  ERM A1201      22.223  34.267  53.426  1.00  0.00    -0.460 C  
HETATM    7  C11 ERM A1201      21.609  38.142  53.325  1.00  0.00    -0.652 A  
HETATM    8  C4  ERM A1201      22.198  33.233  52.283  1.00  0.00    -0.349 C  
HETATM    9  C12 ERM A1201      21.942  38.397  51.953  1.00  0.00    -0.747 A  
HETATM   10  C3  ERM A1201      22.988  33.669  50.992  1.00  0.00    -0.147 C  
HETATM   11  N2  ERM A1201      22.646  31.841  52.707  1.00  0.00    -0.365 NA 
HETATM   12  C15 ERM A1201      21.961  30.755  51.958  1.00  0.00    -0.446 C  
HETATM   13  C13 ERM A1201      22.327  37.346  51.177  1.00  0.00    -0.519 A  
HETATM   14  C5  ERM A1201      22.415  31.462  54.146  1.00  0.00    -0.447 C  
HETATM   15  N1  ERM A1201      22.717  37.192  49.845  1.00  0.00    -0.638 NA 
HETATM   16  C6  ERM A1201      22.853  32.540  55.114  1.00  0.00    -0.479 C  
HETATM   17  C7  ERM A1201      22.541  33.945  54.677  1.00  0.00    -0.480 C  
HETATM   18  H1  ERM A1201      22.777  37.951  49.166  1.00  0.00     0.000 HD 
ENDROOT
BRANCH  16  19
HETATM   19  C16 ERM A1201      22.305  32.234  56.534  1.00  0.00    -0.311 C  
HETATM   20  N3  ERM A1201      22.976  31.299  57.244  1.00  0.00    -0.276 N  
HETATM   21  O1  ERM A1201      21.326  32.833  56.936  1.00  0.00    -0.313 OA 
HETATM   22  H3  ERM A1201      23.783  30.869  56.792  1.00  0.00     0.000 HD 
BRANCH  20  23
HETATM   23  C17 ERM A1201      22.657  30.843  58.600  1.00  0.00    -0.268 C  
HETATM   24  C18 ERM A1201      22.280  31.962  59.528  1.00  0.00    -0.320 C  
HETATM   25  C26 ERM A1201      23.941  30.168  59.056  1.00  0.00    -0.432 C  
HETATM   26  O3  ERM A1201      22.999  32.880  59.862  1.00  0.00    -0.290 OA 
HETATM   27  N4  ERM A1201      21.011  31.709  59.882  1.00  0.00    -0.256 N  
HETATM   28  C25 ERM A1201      20.389  30.512  59.323  1.00  0.00    -0.275 C  
HETATM   29  O5  ERM A1201      19.388  30.846  58.419  1.00  0.00    -0.347 OA 
HETATM   30  C24 ERM A1201      19.881  29.590  60.427  1.00  0.00    -0.285 A  
HETATM   31  O2  ERM A1201      21.518  29.978  58.635  1.00  0.00    -0.278 OA 
HETATM   32  C23 ERM A1201      18.954  28.428  60.036  1.00  0.00    -0.557 A  
HETATM   33  H5  ERM A1201      19.704  31.420  57.731  1.00  0.00     0.000 HD 
HETATM   34  C22 ERM A1201      18.031  28.303  61.283  1.00  0.00    -0.657 A  
HETATM   35  C21 ERM A1201      18.430  29.429  62.213  1.00  0.00    -0.318 A  
HETATM   36  N5  ERM A1201      19.241  30.376  61.459  1.00  0.00    -0.268 N  
HETATM   37  C20 ERM A1201      19.363  31.676  61.679  1.00  0.00    -0.317 C  
HETATM   38  O4  ERM A1201      18.732  32.181  62.624  1.00  0.00    -0.255 OA 
HETATM   39  C19 ERM A1201      20.266  32.553  60.792  1.00  0.00    -0.285 C  
BRANCH  39  40
HETATM   40  C27 ERM A1201      19.423  33.612  60.129  1.00  0.00    -0.319 C  
BRANCH  40  41
HETATM   41  C28 ERM A1201      18.846  34.671  61.052  1.00  0.00    -0.373 A  
HETATM   42  C33 ERM A1201      17.458  34.865  61.176  1.00  0.00    -0.257 A  
HETATM   43  C32 ERM A1201      16.983  35.859  62.050  1.00  0.00    -0.196 A  
HETATM   44  C31 ERM A1201      17.868  36.658  62.798  1.00  0.00    -0.230 A  
HETATM   45  C30 ERM A1201      19.251  36.465  62.674  1.00  0.00    -0.400 A  
HETATM   46  C29 ERM A1201      19.735  35.472  61.802  1.00  0.00    -0.329 A  
ENDBRANCH  40  41
ENDBRANCH  39  40
ENDBRANCH  20  23
ENDBRANCH  16  19
TORSDOF 4
ENDMDL
