MODEL        1
REMARK THIS MODEL IS IDENTICAL TO THE INPUT LIGAND AND NOT FROM DOCKING
REMARK 921   NORMALIZED FREE ENERGY PREDICTED BY IDOCK:   -6.99 KCAL/MOL
REMARK 922        TOTAL FREE ENERGY PREDICTED BY IDOCK:   -9.97 KCAL/MOL
REMARK 923 INTER-LIGAND FREE ENERGY PREDICTED BY IDOCK:   -9.44 KCAL/MOL
REMARK 924 INTRA-LIGAND FREE ENERGY PREDICTED BY IDOCK:   -0.53 KCAL/MOL
REMARK 927      BINDING AFFINITY PREDICTED BY RF-SCORE:    0.00 PKD
ROOT
HETATM    1  C5  TIM A 401       3.037   1.145  51.139  1.00  0.00    -0.453 C  
HETATM    2  N4  TIM A 401       1.640   1.118  50.754  1.00  0.00    -0.398 NA 
HETATM    3  C6  TIM A 401       3.227   1.181  52.657  1.00  0.00    -0.076 C  
HETATM    4  C3  TIM A 401       0.710   0.379  51.570  1.00  0.00    -0.406 C  
HETATM    5  C2  TIM A 401       1.125   0.224  53.044  1.00  0.00    -0.285 C  
HETATM    6  O1  TIM A 401       2.525   0.109  53.257  1.00  0.00    -0.615 OA 
ENDROOT
BRANCH   2   7
HETATM    7  C7  TIM A 401       1.306   1.594  49.509  1.00  0.00    -0.463 A  
HETATM    8  N8  TIM A 401       0.645   0.822  48.631  1.00  0.00    -0.501 NA 
HETATM    9  N10 TIM A 401       1.084   3.083  47.666  1.00  0.00    -0.452 NA 
HETATM   10  S9  TIM A 401       0.376   1.667  47.251  1.00  0.00    -0.369 SA 
HETATM   11  C11 TIM A 401       1.554   2.967  48.898  1.00  0.00    -0.535 A  
BRANCH  11  12
HETATM   12  O12 TIM A 401       2.233   3.973  49.543  1.00  0.00    -0.376 OA 
BRANCH  12  13
HETATM   13  C13 TIM A 401       2.227   5.300  48.941  1.00  0.00    -0.504 C  
BRANCH  13  14
HETATM   14  C14 TIM A 401       3.213   6.032  49.863  1.00  0.00    -0.548 C  
HETATM   15  O15 TIM A 401       3.888   7.083  49.235  1.00  0.00    -0.244 OA 
HETATM   16  H15 TIM A 401       4.498   7.536  49.805  1.00  0.00     0.000 HD 
BRANCH  14  17
HETATM   17  C16 TIM A 401       2.480   6.515  51.102  1.00  0.00    -0.093 C  
BRANCH  17  18
HETATM   18  N17 TIM A 401       3.043   7.593  51.881  1.00  0.00    -0.807 NA 
HETATM   19  H17 TIM A 401       2.850   8.514  51.488  1.00  0.00     0.000 HD 
HETATM   20  C18 TIM A 401       2.542   7.436  53.270  1.00  0.00    -0.373 C  
HETATM   21  C20 TIM A 401       1.067   6.963  53.216  1.00  0.00    -0.681 C  
HETATM   22  C21 TIM A 401       3.404   6.393  54.011  1.00  0.00    -0.663 C  
HETATM   23  C19 TIM A 401       2.600   8.757  54.024  1.00  0.00    -0.599 C  
ENDBRANCH  17  18
ENDBRANCH  14  17
ENDBRANCH  13  14
ENDBRANCH  12  13
ENDBRANCH  11  12
ENDBRANCH   2   7
TORSDOF 6
ENDMDL
