MODEL        1
REMARK THIS MODEL IS IDENTICAL TO THE INPUT LIGAND AND NOT FROM DOCKING
REMARK 921   NORMALIZED FREE ENERGY PREDICTED BY IDOCK:   -8.79 KCAL/MOL
REMARK 922        TOTAL FREE ENERGY PREDICTED BY IDOCK:  -14.70 KCAL/MOL
REMARK 923 INTER-LIGAND FREE ENERGY PREDICTED BY IDOCK:  -12.90 KCAL/MOL
REMARK 924 INTRA-LIGAND FREE ENERGY PREDICTED BY IDOCK:   -1.80 KCAL/MOL
REMARK 927      BINDING AFFINITY PREDICTED BY RF-SCORE:    0.00 PKD
ROOT
HETATM    1  F7  L76 A2001     -12.974  53.085  55.700  1.00  0.00    -0.403 F  
HETATM    2  C11 L76 A2001     -14.279  53.453  55.784  1.00  0.00    -0.300 A  
HETATM    3  C10 L76 A2001     -15.262  52.527  56.147  1.00  0.00    -0.332 A  
HETATM    4  C9  L76 A2001     -16.599  52.923  56.226  1.00  0.00    -0.371 A  
HETATM    5  C8  L76 A2001     -16.957  54.248  55.943  1.00  0.00    -0.279 A  
HETATM    6  C12 L76 A2001     -14.634  54.769  55.501  1.00  0.00    -0.467 A  
HETATM    7  C13 L76 A2001     -15.965  55.156  55.575  1.00  0.00    -0.380 A  
ENDROOT
BRANCH   5   8
HETATM    8  C1  L76 A2001     -18.286  54.717  56.011  1.00  0.00    -0.283 C  
HETATM    9  C2  L76 A2001     -18.956  54.482  54.678  1.00  0.00    -0.331 C  
HETATM   10  O1  L76 A2001     -20.189  55.205  54.676  1.00  0.00    -0.351 OA 
HETATM   11  N1  L76 A2001     -19.183  54.174  57.053  1.00  0.00    -0.057 NA 
HETATM   12  C4  L76 A2001     -20.516  54.829  56.980  1.00  0.00     0.023 C  
HETATM   13  C3  L76 A2001     -21.100  54.656  55.585  1.00  0.00    -0.395 C  
BRANCH   9  14
HETATM   14  O2  L76 A2001     -19.205  53.061  54.522  1.00  0.00    -0.300 OA 
BRANCH  14  15
HETATM   15  C14 L76 A2001     -19.410  52.711  53.156  1.00  0.00    -0.388 C  
HETATM   16  C21 L76 A2001     -20.146  51.376  53.070  1.00  0.00    -0.696 C  
BRANCH  15  17
HETATM   17  C15 L76 A2001     -18.153  52.666  52.558  1.00  0.00    -0.492 A  
HETATM   18  C20 L76 A2001     -17.886  53.554  51.527  1.00  0.00    -0.483 A  
HETATM   19  C16 L76 A2001     -17.161  51.798  53.014  1.00  0.00    -0.146 A  
HETATM   20  C19 L76 A2001     -16.635  53.552  50.935  1.00  0.00    -0.452 A  
HETATM   21  F3  L76 A2001     -15.238  50.331  53.958  1.00  0.00    -0.483 F  
HETATM   22  C18 L76 A2001     -15.645  52.682  51.375  1.00  0.00    -0.487 A  
HETATM   23  C23 L76 A2001     -16.377  54.442  49.922  1.00  0.00    -0.521 C  
HETATM   24  F2  L76 A2001     -13.795  51.643  53.055  1.00  0.00    -0.289 F  
HETATM   25  F4  L76 A2001     -16.976  54.049  48.804  1.00  0.00    -0.701 F  
HETATM   26  C17 L76 A2001     -15.903  51.795  52.410  1.00  0.00    -0.512 A  
HETATM   27  F6  L76 A2001     -15.088  54.509  49.751  1.00  0.00     0.512 F  
HETATM   28  F5  L76 A2001     -16.851  55.682  50.322  1.00  0.00    -0.622 F  
HETATM   29  F1  L76 A2001     -14.632  50.025  51.859  1.00  0.00    -0.581 F  
HETATM   30  C22 L76 A2001     -14.886  50.940  52.828  1.00  0.00    -0.339 C  
ENDBRANCH  15  17
ENDBRANCH  14  15
ENDBRANCH   9  14
BRANCH  11  31
HETATM   31  C5  L76 A2001     -18.623  54.161  58.439  1.00  0.00     0.276 C  
BRANCH  31  32
HETATM   32  C6  L76 A2001     -17.875  55.428  58.849  1.00  0.00    -0.244 A  
HETATM   33  N2  L76 A2001     -16.590  55.676  58.628  1.00  0.00    -0.233 NA 
HETATM   34  N3  L76 A2001     -16.334  56.779  59.099  1.00  0.00    -0.039 NA 
HETATM   35  C7  L76 A2001     -18.361  56.465  59.494  1.00  0.00    -0.295 A  
HETATM   36  N4  L76 A2001     -17.358  57.309  59.644  1.00  0.00    -0.535 NA 
HETATM   37  H3  L76 A2001     -15.415  57.219  59.060  1.00  0.00     0.000 HD 
BRANCH  35  38
HETATM   38  C24 L76 A2001     -19.785  56.671  60.013  1.00  0.00    -0.340 C  
BRANCH  38  39
HETATM   39  N5  L76 A2001     -19.792  56.637  61.492  1.00  0.00    -0.331 NA 
HETATM   40  C26 L76 A2001     -21.166  56.818  61.990  1.00  0.00    -0.022 C  
HETATM   41  C25 L76 A2001     -19.191  55.390  62.020  1.00  0.00    -0.235 C  
ENDBRANCH  38  39
ENDBRANCH  35  38
ENDBRANCH  31  32
ENDBRANCH  11  31
ENDBRANCH   5   8
TORSDOF 8
ENDMDL
