MODEL        1
REMARK THIS MODEL IS IDENTICAL TO THE INPUT LIGAND AND NOT FROM DOCKING
REMARK 921   NORMALIZED FREE ENERGY PREDICTED BY IDOCK:   -7.66 KCAL/MOL
REMARK 922        TOTAL FREE ENERGY PREDICTED BY IDOCK:  -10.82 KCAL/MOL
REMARK 923 INTER-LIGAND FREE ENERGY PREDICTED BY IDOCK:  -10.35 KCAL/MOL
REMARK 924 INTRA-LIGAND FREE ENERGY PREDICTED BY IDOCK:   -0.47 KCAL/MOL
REMARK 927      BINDING AFFINITY PREDICTED BY RF-SCORE:    0.00 PKD
ROOT
HETATM    1  O17 CAU A 400      53.672  -5.956  24.035  1.00  0.00     0.250 OA 
HETATM    2  H17 CAU A 400      53.805  -5.249  24.656  1.00  0.00     0.000 HD 
HETATM    3  C16 CAU A 400      52.983  -5.430  22.910  1.00  0.00    -0.068 C  
ENDROOT
BRANCH   3   4
HETATM    4  C15 CAU A 400      51.677  -4.815  23.362  1.00  0.00    -0.427 C  
BRANCH   4   5
HETATM    5  O14 CAU A 400      50.875  -4.536  22.211  1.00  0.00    -0.385 OA 
BRANCH   5   6
HETATM    6  C13 CAU A 400      49.542  -4.358  22.502  1.00  0.00    -0.467 A  
HETATM    7  C2  CAU A 400      47.328  -3.781  18.201  1.00  0.00    -0.570 A  
HETATM    8  C12 CAU A 400      49.070  -4.367  23.812  1.00  0.00    -0.904 A  
HETATM    9  C1  CAU A 400      48.439  -3.908  17.363  1.00  0.00    -0.672 A  
HETATM   10  C6  CAU A 400      49.713  -4.134  17.880  1.00  0.00    -0.209 A  
HETATM   11  C11 CAU A 400      47.727  -4.176  24.073  1.00  0.00    -0.890 A  
HETATM   12  C10 CAU A 400      46.832  -3.982  23.034  1.00  0.00    -0.679 A  
HETATM   13  C8  CAU A 400      47.288  -3.971  21.732  1.00  0.00    -0.484 A  
HETATM   14  N7  CAU A 400      46.646  -3.802  20.583  1.00  0.00    -0.581 NA 
HETATM   15  C3  CAU A 400      47.505  -3.879  19.573  1.00  0.00    -0.368 A  
HETATM   16  H7  CAU A 400      45.644  -3.638  20.490  1.00  0.00     0.000 HD 
HETATM   17  C4  CAU A 400      48.774  -4.108  20.094  1.00  0.00    -0.608 A  
HETATM   18  C9  CAU A 400      48.633  -4.161  21.469  1.00  0.00    -0.658 A  
HETATM   19  C5  CAU A 400      49.878  -4.234  19.254  1.00  0.00    -0.586 A  
ENDBRANCH   5   6
ENDBRANCH   4   5
ENDBRANCH   3   4
BRANCH   3  20
HETATM   20  C18 CAU A 400      52.771  -6.561  21.917  1.00  0.00    -0.058 C  
BRANCH  20  21
HETATM   21  N19 CAU A 400      54.084  -7.019  21.428  1.00  0.00    -0.845 NA 
HETATM   22  H19 CAU A 400      54.726  -6.268  21.177  1.00  0.00     0.000 HD 
BRANCH  21  23
HETATM   23  C20 CAU A 400      53.746  -7.920  20.325  1.00  0.00    -0.422 C  
HETATM   24  C21 CAU A 400      54.050  -9.373  20.724  1.00  0.00    -0.333 C  
HETATM   25  C22 CAU A 400      54.490  -7.465  19.053  1.00  0.00    -0.388 C  
ENDBRANCH  21  23
ENDBRANCH  20  21
ENDBRANCH   3  20
TORSDOF 6
ENDMDL
