MODEL        1
REMARK THIS MODEL IS IDENTICAL TO THE INPUT LIGAND AND NOT FROM DOCKING
REMARK 921   NORMALIZED FREE ENERGY PREDICTED BY IDOCK:  -10.29 KCAL/MOL
REMARK 922        TOTAL FREE ENERGY PREDICTED BY IDOCK:  -15.90 KCAL/MOL
REMARK 923 INTER-LIGAND FREE ENERGY PREDICTED BY IDOCK:  -15.11 KCAL/MOL
REMARK 924 INTRA-LIGAND FREE ENERGY PREDICTED BY IDOCK:   -0.79 KCAL/MOL
REMARK 927      BINDING AFFINITY PREDICTED BY RF-SCORE:    0.00 PKD
ROOT
HETATM    1  OAI 6AT A1201     -15.253  -8.614  18.681  1.00  0.00    -0.695 OA 
HETATM    2  PBE 6AT A1201     -15.967  -7.455  17.805  1.00  0.00    -0.016 P  
HETATM    3  OAH 6AT A1201     -17.415  -7.741  17.788  1.00  0.00    -0.355 OA 
HETATM    4  OAS 6AT A1201     -15.417  -7.693  16.309  1.00  0.00    -0.626 OA 
HETATM    5  OAC 6AT A1201     -15.478  -6.136  18.276  1.00  0.00    -0.528 OA 
ENDROOT
BRANCH   4   6
HETATM    6  PBG 6AT A1201     -16.009  -6.797  15.110  1.00  0.00    -0.441 P  
HETATM    7  OAE 6AT A1201     -16.323  -5.412  15.525  1.00  0.00    -0.525 OA 
HETATM    8  OAK 6AT A1201     -14.889  -6.804  13.966  1.00  0.00    -0.335 OA 
BRANCH   6   9
HETATM    9  OAT 6AT A1201     -17.328  -7.568  14.565  1.00  0.00    -0.269 OA 
BRANCH   9  10
HETATM   10  PBF 6AT A1201     -17.329  -8.890  13.622  1.00  0.00    -0.448 P  
HETATM   11  OAJ 6AT A1201     -17.621 -10.136  14.592  1.00  0.00    -0.667 OA 
HETATM   12  OAD 6AT A1201     -16.099  -9.083  12.828  1.00  0.00    -0.887 OA 
BRANCH  10  13
HETATM   13  O5' 6AT A1201     -18.623  -8.793  12.662  1.00  0.00    -0.370 OA 
BRANCH  13  14
HETATM   14  C5' 6AT A1201     -19.741  -7.948  12.961  1.00  0.00    -0.342 C  
BRANCH  14  15
HETATM   15  C4' 6AT A1201     -21.026  -8.528  12.351  1.00  0.00    -0.370 C  
HETATM   16  O4' 6AT A1201     -20.801  -9.226  11.098  1.00  0.00    -0.493 OA 
HETATM   17  C1' 6AT A1201     -21.232 -10.599  11.235  1.00  0.00    -0.427 C  
HETATM   18  H3' 6AT A1201     -23.540  -9.839  13.930  1.00  0.00     0.000 HD 
HETATM   19  C2' 6AT A1201     -21.387 -10.852  12.729  1.00  0.00    -0.350 C  
HETATM   20  O2' 6AT A1201     -22.443 -11.789  12.972  1.00  0.00    -0.733 OA 
HETATM   21  C3' 6AT A1201     -21.699  -9.490  13.314  1.00  0.00    -0.437 C  
HETATM   22  H2' 6AT A1201     -22.540 -11.947  13.904  1.00  0.00     0.000 HD 
HETATM   23  O3' 6AT A1201     -23.119  -9.237  13.328  1.00  0.00    -0.361 OA 
BRANCH  17  24
HETATM   24  N9  6AT A1201     -20.192 -11.473  10.602  1.00  0.00    -0.411 NA 
HETATM   25  N3  6AT A1201     -21.281 -12.058   8.479  1.00  0.00    -0.522 NA 
HETATM   26  C2  6AT A1201     -21.138 -12.750   7.331  1.00  0.00    -0.430 A  
HETATM   27  C4  6AT A1201     -20.294 -12.051   9.404  1.00  0.00    -0.404 A  
HETATM   28  N1  6AT A1201     -19.990 -13.427   7.109  1.00  0.00    -0.357 NA 
HETATM   29  C8  6AT A1201     -18.988 -11.769  11.094  1.00  0.00    -0.460 A  
HETATM   30  C6  6AT A1201     -19.014 -13.412   8.036  1.00  0.00    -0.530 A  
HETATM   31  N7  6AT A1201     -18.361 -12.556  10.229  1.00  0.00    -0.454 NA 
HETATM   32  C5  6AT A1201     -19.159 -12.727   9.178  1.00  0.00    -0.480 A  
HETATM   33  N6  6AT A1201     -17.866 -14.067   7.861  1.00  0.00    -0.575 NA 
HETATM   34  H61 6AT A1201     -17.126 -14.056   8.563  1.00  0.00     0.000 HD 
HETATM   35  H62 6AT A1201     -17.723 -14.595   7.000  1.00  0.00     0.000 HD 
BRANCH  26  36
HETATM   36  S2  6AT A1201     -22.466 -12.737   6.137  1.00  0.00    -0.264 SA 
HETATM   37  CAA 6AT A1201     -21.719 -13.469   4.692  1.00  0.00    -0.545 C  
ENDBRANCH  26  36
ENDBRANCH  17  24
ENDBRANCH  14  15
ENDBRANCH  13  14
ENDBRANCH  10  13
ENDBRANCH   9  10
ENDBRANCH   6   9
ENDBRANCH   4   6
TORSDOF 8
ENDMDL
