MODEL        1
REMARK THIS MODEL IS IDENTICAL TO THE INPUT LIGAND AND NOT FROM DOCKING
REMARK 921   NORMALIZED FREE ENERGY PREDICTED BY IDOCK:  -11.47 KCAL/MOL
REMARK 922        TOTAL FREE ENERGY PREDICTED BY IDOCK:  -14.70 KCAL/MOL
REMARK 923 INTER-LIGAND FREE ENERGY PREDICTED BY IDOCK:  -14.15 KCAL/MOL
REMARK 924 INTRA-LIGAND FREE ENERGY PREDICTED BY IDOCK:   -0.55 KCAL/MOL
REMARK 927      BINDING AFFINITY PREDICTED BY RF-SCORE:    0.00 PKD
ROOT
HETATM    1  CAA P0G A1401      -6.393 -10.915 -54.317  1.00  0.00    -0.435 C  
HETATM    2  CAT P0G A1401      -6.502 -12.416 -54.354  1.00  0.00    -0.531 A  
HETATM    3  CAI P0G A1401      -6.755 -13.027 -55.573  1.00  0.00    -0.469 A  
HETATM    4  CAG P0G A1401      -6.857 -14.410 -55.642  1.00  0.00    -0.451 A  
HETATM    5  CAH P0G A1401      -6.710 -15.185 -54.497  1.00  0.00    -0.580 A  
HETATM    6  CAJ P0G A1401      -6.467 -14.573 -53.281  1.00  0.00    -0.495 A  
HETATM    7  CAV P0G A1401      -6.345 -13.188 -53.208  1.00  0.00    -0.466 A  
ENDROOT
BRANCH   7   8
HETATM    8  CAO P0G A1401      -6.081 -12.556 -51.859  1.00  0.00    -0.440 C  
HETATM    9  CBA P0G A1401      -4.601 -12.400 -51.508  1.00  0.00    -0.360 C  
HETATM   10  CAC P0G A1401      -3.679 -13.236 -52.387  1.00  0.00    -0.523 C  
HETATM   11  CAB P0G A1401      -4.199 -10.932 -51.583  1.00  0.00    -0.779 C  
HETATM   12  NAP P0G A1401      -4.408 -12.801 -50.131  1.00  0.00    -0.710 NA 
HETATM   13  HAP P0G A1401      -5.090 -13.392 -49.656  1.00  0.00     0.000 HD 
BRANCH  12  14
HETATM   14  CAN P0G A1401      -3.218 -12.339 -49.448  1.00  0.00     0.056 C  
BRANCH  14  15
HETATM   15  CAZ P0G A1401      -2.687 -13.464 -48.577  1.00  0.00    -0.480 C  
HETATM   16  HAF P0G A1401      -3.324 -14.408 -46.998  1.00  0.00     0.000 HD 
HETATM   17  OAF P0G A1401      -3.656 -13.704 -47.543  1.00  0.00    -0.450 OA 
BRANCH  15  18
HETATM   18  CAW P0G A1401      -1.363 -13.076 -48.020  1.00  0.00    -0.622 A  
HETATM   19  CAY P0G A1401      -0.201 -13.086 -48.797  1.00  0.00    -0.454 A  
HETATM   20  OAR P0G A1401      -0.189 -13.431 -50.122  1.00  0.00    -0.471 OA 
HETATM   21  CAM P0G A1401       0.963 -14.115 -50.627  1.00  0.00    -0.360 C  
HETATM   22  CAS P0G A1401       2.240 -13.496 -50.093  1.00  0.00    -0.160 C  
HETATM   23  OAD P0G A1401       3.313 -13.708 -50.637  1.00  0.00    -0.809 OA 
HETATM   24  NAQ P0G A1401       2.133 -12.722 -49.017  1.00  0.00    -0.629 N  
HETATM   25  CAX P0G A1401       1.019 -12.727 -48.248  1.00  0.00    -0.482 A  
HETATM   26  HAQ P0G A1401       2.909 -12.110 -48.765  1.00  0.00     0.000 HD 
HETATM   27  CAU P0G A1401       1.103 -12.357 -46.921  1.00  0.00    -0.535 A  
HETATM   28  OAE P0G A1401       2.310 -12.006 -46.394  1.00  0.00    -0.729 OA 
HETATM   29  CAK P0G A1401      -0.043 -12.351 -46.134  1.00  0.00    -0.919 A  
HETATM   30  CAL P0G A1401      -1.271 -12.710 -46.682  1.00  0.00    -0.870 A  
HETATM   31  HAE P0G A1401       2.368 -11.751 -45.481  1.00  0.00     0.000 HD 
ENDBRANCH  15  18
ENDBRANCH  14  15
ENDBRANCH  12  14
ENDBRANCH   7   8
TORSDOF 4
ENDMDL
