REMARK  8 active torsions:
REMARK  status: ('A' for Active; 'I' for Inactive)
REMARK    1  A    between atoms: CAV_9  and  NAT_11
REMARK    2  A    between atoms: CAM_12  and  CAJ_15
REMARK    3  A    between atoms: CAG_17  and  CAE_21
REMARK    4  A    between atoms: NAH_20  and  CAN_27
REMARK    5  A    between atoms: CAN_27  and  CAO_28
REMARK    6  A    between atoms: CAO_28  and  CAP_29
REMARK    7  A    between atoms: CAP_29  and  CAQ_30
REMARK    8  A    between atoms: CAQ_30  and  CAR_31
ROOT
HETATM    1  CAW 9JU A1201       8.372   2.466 -58.835  1.00  0.00     0.026 C
HETATM    2  CAX 9JU A1201       8.612   3.656 -59.851  1.00  0.00    -0.009 C
HETATM    3  CBE 9JU A1201       8.191   5.032 -59.186  1.00  0.00     0.007 C
HETATM    4  CBC 9JU A1201       9.035   5.289 -57.885  1.00  0.00    -0.009 C
HETATM    5  CBB 9JU A1201      10.560   5.335 -58.268  1.00  0.00     0.007 C
HETATM    6  CAZ 9JU A1201      10.995   3.975 -58.930  1.00  0.00    -0.009 C
HETATM    7  CAY 9JU A1201      10.138   3.713 -60.222  1.00  0.00     0.007 C
HETATM    8  CBA 9JU A1201      10.745   2.800 -57.912  1.00  0.00     0.026 C
HETATM    9  CAV 9JU A1201       9.214   2.718 -57.517  1.00  0.00     0.027 C
HETATM   10  CBD 9JU A1201       8.787   4.111 -56.859  1.00  0.00     0.026 C
ENDROOT
BRANCH   9  11
HETATM   11  NAT 9JU A1201       9.094   1.582 -56.563  1.00  0.00    -0.247 N
HETATM   12  CAM 9JU A1201       8.007   1.148 -55.865  1.00  0.00     0.252 C
HETATM   13  HAT 9JU A1201       9.951   1.051 -56.409  1.00  0.00     0.131 HD
HETATM   14  OAU 9JU A1201       6.882   1.646 -55.968  1.00  0.00    -0.272 OA
BRANCH  12  15
HETATM   15  CAJ 9JU A1201       8.263   0.075 -55.070  1.00  0.00     0.141 A
HETATM   16  CAK 9JU A1201       7.503  -0.525 -54.143  1.00  0.00     0.001 A
HETATM   17  CAG 9JU A1201       8.234  -1.534 -53.669  1.00  0.00     0.052 A
HETATM   18  CAL 9JU A1201       6.074  -0.168 -53.686  1.00  0.00     0.048 C
HETATM   19  NAI 9JU A1201       9.425  -0.595 -55.104  1.00  0.00    -0.188 NA
HETATM   20  NAH 9JU A1201       9.414  -1.536 -54.315  1.00  0.00    -0.167 NA
BRANCH  17  21
HETATM   21  CAE 9JU A1201       7.862  -2.396 -52.704  1.00  0.00    -0.005 A
HETATM   22  CAA 9JU A1201       6.965  -4.566 -52.049  1.00  0.00     0.001 A
HETATM   23  CAD 9JU A1201       8.009  -2.059 -51.346  1.00  0.00     0.009 A
HETATM   24  CAF 9JU A1201       7.334  -3.651 -53.045  1.00  0.00     0.009 A
HETATM   25  CAC 9JU A1201       7.627  -2.965 -50.350  1.00  0.00     0.001 A
HETATM   26  CAB 9JU A1201       7.108  -4.217 -50.703  1.00  0.00     0.000 A
ENDBRANCH  17  21
BRANCH  20  27
HETATM   27  CAN 9JU A1201      10.645  -2.398 -54.172  1.00  0.00     0.116 C
BRANCH  27  28
HETATM   28  CAO 9JU A1201      10.472  -3.801 -54.767  1.00  0.00     0.018 C
BRANCH  28  29
HETATM   29  CAP 9JU A1201      10.883  -3.804 -56.237  1.00  0.00     0.004 C
BRANCH  29  30
HETATM   30  CAQ 9JU A1201      11.560  -5.134 -56.578  1.00  0.00     0.028 C
BRANCH  30  31
HETATM   31  CAR 9JU A1201      12.302  -5.005 -57.913  1.00  0.00     0.156 C
HETATM   32  OAS 9JU A1201      13.585  -4.397 -57.705  1.00  0.00    -0.395 OA
HETATM   33  HAS 9JU A1201      14.045  -4.317 -58.532  1.00  0.00     0.209 HD
ENDBRANCH  30  31
ENDBRANCH  29  30
ENDBRANCH  28  29
ENDBRANCH  27  28
ENDBRANCH  20  27
ENDBRANCH  12  15
ENDBRANCH   9  11
TORSDOF 8
