REMARK  7 active torsions:
REMARK  status: ('A' for Active; 'I' for Inactive)
REMARK    1  A    between atoms: N12_3  and  C15_7
REMARK    2  A    between atoms: N09_5  and  C08_13
REMARK    3  A    between atoms: C08_13  and  C07_14
REMARK    4  A    between atoms: C07_14  and  C06_15
REMARK    5  A    between atoms: C06_15  and  N05_16
REMARK    6  A    between atoms: N05_16  and  C04_18
REMARK    7  A    between atoms: C24_28  and  C27_30
ROOT
HETATM    1  C10 6DX A2401     -21.055  14.806  14.466  1.00  0.00     0.124 C
HETATM    2  C11 6DX A2401     -20.304  15.856  15.285  1.00  0.00     0.049 C
HETATM    3  N12 6DX A2401     -18.960  15.573  15.312  1.00  0.00    -0.252 NA
HETATM    4  C13 6DX A2401     -18.713  14.334  15.852  1.00  0.00     0.110 C
HETATM    5  N09 6DX A2401     -20.814  13.503  14.893  1.00  0.00    -0.297 NA
HETATM    6  C14 6DX A2401     -19.473  13.217  15.118  1.00  0.00     0.101 C
ENDROOT
BRANCH   3   7
HETATM    7  C15 6DX A2401     -18.101  16.101  14.242  1.00  0.00     0.022 A
HETATM    8  C19 6DX A2401     -17.015  17.966  13.174  1.00  0.00     0.002 A
HETATM    9  C20 6DX A2401     -17.827  17.459  14.188  1.00  0.00     0.020 A
HETATM   10  C18 6DX A2401     -16.480  17.115  12.217  1.00  0.00     0.000 A
HETATM   11  C16 6DX A2401     -17.562  15.250  13.278  1.00  0.00     0.020 A
HETATM   12  C17 6DX A2401     -16.753  15.755  12.267  1.00  0.00     0.002 A
ENDBRANCH   3   7
BRANCH   5  13
HETATM   13  C08 6DX A2401     -21.302  12.704  14.031  1.00  0.00     0.086 C
BRANCH  13  14
HETATM   14  C07 6DX A2401     -21.304  11.239  14.539  1.00  0.00     0.031 C
BRANCH  14  15
HETATM   15  C06 6DX A2401     -22.214  11.049  15.767  1.00  0.00     0.090 C
BRANCH  15  16
HETATM   16  N05 6DX A2401     -22.538   9.642  15.925  1.00  0.00    -0.256 NA
HETATM   17  H05 6DX A2401     -23.416   9.274  15.559  1.00  0.00     0.131 HD
BRANCH  16  18
HETATM   18  C04 6DX A2401     -21.624   8.780  16.592  1.00  0.00     0.207 C
HETATM   19  N03 6DX A2401     -20.405   9.245  17.000  1.00  0.00    -0.192 NA
HETATM   20  C02 6DX A2401     -19.538   8.420  17.630  1.00  0.00     0.184 C
HETATM   21  N01 6DX A2401     -18.259   8.897  18.059  1.00  0.00    -0.275 NA
HETATM   22  N26 6DX A2401     -19.888   7.112  17.857  1.00  0.00    -0.072 NA
HETATM   23  C22 6DX A2401     -21.076   6.664  17.458  1.00  0.00     0.236 A
HETATM   24 2H01 6DX A2401     -18.405   9.716  18.649  1.00  0.00     0.126 HD
HETATM   25 1H01 6DX A2401     -17.605   8.275  18.534  1.00  0.00     0.126 HD
HETATM   26  N23 6DX A2401     -21.169   5.330  17.812  1.00  0.00    -0.192 NA
HETATM   27  N21 6DX A2401     -21.965   7.511  16.810  1.00  0.00    -0.185 NA
HETATM   28  C24 6DX A2401     -20.015   4.993  18.432  1.00  0.00     0.201 A
HETATM   29  N25 6DX A2401     -19.208   6.086  18.463  1.00  0.00    -0.161 NA
BRANCH  28  30
HETATM   30  C27 6DX A2401     -19.677   3.594  18.978  1.00  0.00     0.128 A
HETATM   31  C28 6DX A2401     -20.587   2.558  19.226  1.00  0.00     0.039 A
HETATM   32  C29 6DX A2401     -19.843   1.461  19.697  1.00  0.00     0.028 A
HETATM   33  C30 6DX A2401     -18.503   1.840  19.723  1.00  0.00     0.136 A
HETATM   34  O31 6DX A2401     -18.429   3.137  19.277  1.00  0.00    -0.313 OA
ENDBRANCH  28  30
ENDBRANCH  16  18
ENDBRANCH  15  16
ENDBRANCH  14  15
ENDBRANCH  13  14
ENDBRANCH   5  13
TORSDOF 7
