MODEL        1
REMARK THIS MODEL IS IDENTICAL TO THE INPUT LIGAND AND NOT FROM DOCKING
REMARK 921   NORMALIZED FREE ENERGY PREDICTED BY IDOCK:   -7.22 KCAL/MOL
REMARK 922        TOTAL FREE ENERGY PREDICTED BY IDOCK:  -10.28 KCAL/MOL
REMARK 923 INTER-LIGAND FREE ENERGY PREDICTED BY IDOCK:   -9.76 KCAL/MOL
REMARK 924 INTRA-LIGAND FREE ENERGY PREDICTED BY IDOCK:   -0.52 KCAL/MOL
REMARK 927      BINDING AFFINITY PREDICTED BY RF-SCORE:    0.00 PKD
ROOT
HETATM    1  C11 8D1 A 503     145.749  37.234  17.054  1.00  0.00    -0.340 C  
HETATM    2  N12 8D1 A 503     145.463  36.765  15.826  1.00  0.00    -0.332 NA 
HETATM    3 2H12 8D1 A 503     145.202  37.410  15.080  1.00  0.00     0.000 HD 
HETATM    4 1H12 8D1 A 503     145.508  35.762  15.643  1.00  0.00     0.000 HD 
ENDROOT
BRANCH   1   5
HETATM    5  N10 8D1 A 503     145.690  38.557  17.296  1.00  0.00     0.077 NA 
HETATM    6  H10 8D1 A 503     145.829  38.863  18.259  1.00  0.00     0.000 HD 
BRANCH   5   7
HETATM    7  C09 8D1 A 503     145.442  39.595  16.289  1.00  0.00     0.202 C  
BRANCH   7   8
HETATM    8  C08 8D1 A 503     146.731  39.978  15.583  1.00  0.00    -0.572 A  
HETATM    9  C07 8D1 A 503     147.114  39.276  14.419  1.00  0.00    -0.640 A  
HETATM   10  C03 8D1 A 503     147.605  40.954  16.119  1.00  0.00    -0.414 A  
HETATM   11  C04 8D1 A 503     148.841  41.198  15.493  1.00  0.00    -1.037 A  
HETATM   12  C06 8D1 A 503     148.354  39.530  13.807  1.00  0.00    -0.663 A  
HETATM   13  C05 8D1 A 503     149.218  40.498  14.339  1.00  0.00    -0.716 A  
BRANCH  10  14
HETATM   14  O02 8D1 A 503     147.336  41.626  17.283  1.00  0.00    -0.335 OA 
HETATM   15  C01 8D1 A 503     146.307  42.597  17.210  1.00  0.00    -0.449 C  
ENDBRANCH  10  14
ENDBRANCH   7   8
ENDBRANCH   5   7
ENDBRANCH   1   5
BRANCH   1  16
HETATM   16  C13 8D1 A 503     146.163  36.276  18.074  1.00  0.00    -0.330 A  
HETATM   17  C24 8D1 A 503     145.951  36.409  19.475  1.00  0.00    -0.307 A  
HETATM   18 1H25 8D1 A 503     145.159  37.552  21.154  1.00  0.00     0.000 HD 
HETATM   19  N14 8D1 A 503     146.769  35.142  17.843  1.00  0.00    -0.308 NA 
HETATM   20  N23 8D1 A 503     146.438  35.367  20.099  1.00  0.00    -0.370 NA 
HETATM   21  N25 8D1 A 503     145.311  37.457  20.150  1.00  0.00    -0.401 NA 
HETATM   22 2H25 8D1 A 503     144.390  37.543  19.720  1.00  0.00     0.000 HD 
HETATM   23  N15 8D1 A 503     146.919  34.597  19.080  1.00  0.00    -0.352 NA 
BRANCH  23  24
HETATM   24  C16 8D1 A 503     147.538  33.334  19.273  1.00  0.00    -0.293 A  
HETATM   25  C17 8D1 A 503     147.878  32.894  20.569  1.00  0.00     0.156 A  
HETATM   26  C22 8D1 A 503     147.857  32.511  18.169  1.00  0.00    -0.487 A  
HETATM   27  C18 8D1 A 503     148.534  31.666  20.763  1.00  0.00    -0.227 A  
HETATM   28  C19 8D1 A 503     148.845  30.851  19.662  1.00  0.00    -0.420 A  
HETATM   29  C21 8D1 A 503     148.895  30.443  17.162  1.00  0.00    -0.635 C  
HETATM   30  C20 8D1 A 503     148.515  31.279  18.362  1.00  0.00    -0.562 A  
ENDBRANCH  23  24
ENDBRANCH   1  16
TORSDOF 6
ENDMDL
