REMARK  4 active torsions:
REMARK  status: ('A' for Active; 'I' for Inactive)
REMARK    1  A    between atoms: C6_3  and  C7_10
REMARK    2  A    between atoms: C8_11  and  C9_12
REMARK    3  A    between atoms: C10_13  and  C11_15
REMARK    4  A    between atoms: C12_16  and  C13_17
ROOT
HETATM    1  C1  RET A1000      19.266  44.725  61.143  1.00  0.00    -0.010 C
HETATM    2  C17 RET A1000      19.129  43.966  59.829  1.00  0.00     0.016 C
HETATM    3  C6  RET A1000      17.866  44.880  61.941  1.00  0.00    -0.043 C
HETATM    4  C16 RET A1000      19.814  46.135  60.806  1.00  0.00     0.016 C
HETATM    5  C5  RET A1000      17.769  44.615  63.267  1.00  0.00    -0.069 C
HETATM    6  C2  RET A1000      20.391  44.067  62.026  1.00  0.00     0.011 C
HETATM    7  C18 RET A1000      16.542  44.764  64.129  1.00  0.00     0.039 C
HETATM    8  C4  RET A1000      18.982  44.109  64.032  1.00  0.00     0.031 C
HETATM    9  C3  RET A1000      19.967  43.345  63.177  1.00  0.00     0.005 C
ENDROOT
BRANCH   3  10
HETATM   10  C7  RET A1000      16.744  45.284  61.034  1.00  0.00     0.004 C
HETATM   11  C8  RET A1000      15.681  44.538  60.907  1.00  0.00     0.003 C
BRANCH  11  12
HETATM   12  C9  RET A1000      14.712  44.622  59.854  1.00  0.00    -0.050 C
HETATM   13  C10 RET A1000      13.919  43.526  59.835  1.00  0.00     0.003 C
HETATM   14  C19 RET A1000      14.881  45.638  58.778  1.00  0.00     0.044 C
BRANCH  13  15
HETATM   15  C11 RET A1000      13.053  42.997  58.824  1.00  0.00     0.001 C
HETATM   16  C12 RET A1000      12.628  41.746  59.060  1.00  0.00     0.003 C
BRANCH  16  17
HETATM   17  C13 RET A1000      12.106  40.794  58.126  1.00  0.00    -0.055 C
HETATM   18  C14 RET A1000      11.504  39.691  58.578  1.00  0.00    -0.027 C
HETATM   19  C20 RET A1000      12.404  41.012  56.670  1.00  0.00     0.043 C
HETATM   20  C15 RET A1000      11.030  38.646  57.685  1.00  0.00     0.035 C
ENDBRANCH  16  17
ENDBRANCH  13  15
ENDBRANCH  11  12
ENDBRANCH   3  10
TORSDOF 4
