REMARK  4 active torsions:
REMARK  status: ('A' for Active; 'I' for Inactive)
REMARK    1  A    between atoms: C6_3  and  C7_10
REMARK    2  A    between atoms: C8_11  and  C9_12
REMARK    3  A    between atoms: C10_13  and  C11_15
REMARK    4  A    between atoms: C12_16  and  C13_17
ROOT
HETATM    1  C1  RET A 401      19.103  44.882  60.926  1.00  0.00    -0.010 C
HETATM    2  C17 RET A 401      19.055  43.888  59.768  1.00  0.00     0.016 C
HETATM    3  C6  RET A 401      17.658  45.045  61.611  1.00  0.00    -0.043 C
HETATM    4  C16 RET A 401      19.652  46.237  60.406  1.00  0.00     0.016 C
HETATM    5  C5  RET A 401      17.445  44.693  62.925  1.00  0.00    -0.069 C
HETATM    6  C2  RET A 401      20.183  44.394  61.960  1.00  0.00     0.011 C
HETATM    7  C18 RET A 401      16.143  44.805  63.696  1.00  0.00     0.039 C
HETATM    8  C4  RET A 401      18.556  44.105  63.787  1.00  0.00     0.031 C
HETATM    9  C3  RET A 401      19.741  43.562  63.036  1.00  0.00     0.005 C
ENDROOT
BRANCH   3  10
HETATM   10  C7  RET A 401      16.538  45.602  60.723  1.00  0.00     0.004 C
HETATM   11  C8  RET A 401      15.759  44.810  60.001  1.00  0.00     0.003 C
BRANCH  11  12
HETATM   12  C9  RET A 401      14.568  45.022  59.149  1.00  0.00    -0.050 C
HETATM   13  C10 RET A 401      13.883  43.851  58.981  1.00  0.00     0.003 C
HETATM   14  C19 RET A 401      14.223  46.384  58.584  1.00  0.00     0.044 C
BRANCH  13  15
HETATM   15  C11 RET A 401      12.669  43.422  58.343  1.00  0.00     0.001 C
HETATM   16  C12 RET A 401      12.416  42.096  58.382  1.00  0.00     0.003 C
BRANCH  16  17
HETATM   17  C13 RET A 401      11.228  41.308  58.041  1.00  0.00    -0.055 C
HETATM   18  C14 RET A 401      11.374  39.950  58.125  1.00  0.00    -0.027 C
HETATM   19  C20 RET A 401       9.960  42.010  57.631  1.00  0.00     0.043 C
HETATM   20  C15 RET A 401      10.410  38.870  57.868  1.00  0.00     0.035 C
ENDBRANCH  16  17
ENDBRANCH  13  15
ENDBRANCH  11  12
ENDBRANCH   3  10
TORSDOF 4
