REMARK  7 active torsions:
REMARK  status: ('A' for Active; 'I' for Inactive)
REMARK    1  A    between atoms: C3_6  and  C10_15
REMARK    2  A    between atoms: C10_15  and  C11_18
REMARK    3  A    between atoms: C11_18  and  N2_19
REMARK    4  A    between atoms: N2_19  and  C12_21
REMARK    5  A    between atoms: C12_21  and  C14_23
REMARK    6  A    between atoms: C14_23  and  C15_24
REMARK    7  A    between atoms: C18_27  and  O3_30
ROOT
HETATM    1  O1  WHJ A 601     -19.709 -13.584  29.988  1.00  0.00    -0.274 OA
HETATM    2  C9  WHJ A 601     -20.354 -13.384  28.940  1.00  0.00     0.229 C
HETATM    3  C8  WHJ A 601     -21.688 -13.791  28.864  1.00  0.00     0.064 C
HETATM    4  C1  WHJ A 601     -22.437 -13.570  27.713  1.00  0.00     0.015 C
HETATM    5  C2  WHJ A 601     -21.831 -12.938  26.631  1.00  0.00     0.001 A
HETATM    6  C3  WHJ A 601     -22.521 -12.650  25.338  1.00  0.00    -0.009 A
HETATM    7  H1  WHJ A 601     -18.776 -12.486  27.995  1.00  0.00     0.137 HD
HETATM    8  C4  WHJ A 601     -21.801 -12.011  24.319  1.00  0.00     0.009 A
HETATM    9  N1  WHJ A 601     -19.751 -12.773  27.908  1.00  0.00    -0.222 N
HETATM   10  C5  WHJ A 601     -20.461 -11.631  24.454  1.00  0.00     0.034 A
HETATM   11  H2  WHJ A 601     -18.017 -11.059  25.006  1.00  0.00     0.217 HD
HETATM   12  C6  WHJ A 601     -19.745 -11.870  25.623  1.00  0.00     0.091 A
HETATM   13  C7  WHJ A 601     -20.410 -12.535  26.766  1.00  0.00     0.060 A
HETATM   14  O2  WHJ A 601     -18.444 -11.486  25.740  1.00  0.00    -0.358 OA
ENDROOT
BRANCH   6  15
HETATM   15  C10 WHJ A 601     -23.939 -13.028  25.115  1.00  0.00     0.159 C
HETATM   16  H4  WHJ A 601     -24.381 -11.370  24.144  1.00  0.00     0.210 HD
HETATM   17  O4  WHJ A 601     -24.432 -12.305  23.985  1.00  0.00    -0.386 OA
BRANCH  15  18
HETATM   18  C11 WHJ A 601     -24.021 -14.535  24.859  1.00  0.00     0.117 C
BRANCH  18  19
HETATM   19  N2  WHJ A 601     -25.391 -15.031  24.735  1.00  0.00    -0.310 NA
HETATM   20  H2  WHJ A 601     -26.168 -14.373  24.675  1.00  0.00     0.122 HD
BRANCH  19  21
HETATM   21  C12 WHJ A 601     -25.649 -16.474  24.697  1.00  0.00     0.055 C
HETATM   22  C13 WHJ A 601     -24.625 -17.253  23.879  1.00  0.00     0.024 C
BRANCH  21  23
HETATM   23  C14 WHJ A 601     -27.064 -16.808  24.212  1.00  0.00     0.053 C
BRANCH  23  24
HETATM   24  C15 WHJ A 601     -27.993 -16.343  25.293  1.00  0.00    -0.046 A
HETATM   25  C20 WHJ A 601     -29.170 -15.645  25.019  1.00  0.00     0.006 A
HETATM   26  C19 WHJ A 601     -29.956 -15.225  26.099  1.00  0.00     0.033 A
HETATM   27  C18 WHJ A 601     -29.552 -15.505  27.420  1.00  0.00     0.076 A
HETATM   28  C17 WHJ A 601     -28.378 -16.201  27.678  1.00  0.00     0.033 A
HETATM   29  C16 WHJ A 601     -27.604 -16.615  26.606  1.00  0.00     0.006 A
BRANCH  27  30
HETATM   30  O3  WHJ A 601     -30.283 -15.105  28.502  1.00  0.00    -0.348 OA
HETATM   31  C21 WHJ A 601     -29.656 -14.265  29.474  1.00  0.00     0.202 C
ENDBRANCH  27  30
ENDBRANCH  23  24
ENDBRANCH  21  23
ENDBRANCH  19  21
ENDBRANCH  18  19
ENDBRANCH  15  18
ENDBRANCH   6  15
TORSDOF 7
