MODEL        1
REMARK THIS MODEL IS IDENTICAL TO THE INPUT LIGAND AND NOT FROM DOCKING
REMARK 921   NORMALIZED FREE ENERGY PREDICTED BY IDOCK:   -2.14 KCAL/MOL
REMARK 922        TOTAL FREE ENERGY PREDICTED BY IDOCK:   -3.09 KCAL/MOL
REMARK 923 INTER-LIGAND FREE ENERGY PREDICTED BY IDOCK:   -2.64 KCAL/MOL
REMARK 924 INTRA-LIGAND FREE ENERGY PREDICTED BY IDOCK:   -0.45 KCAL/MOL
REMARK 927      BINDING AFFINITY PREDICTED BY RF-SCORE:    0.00 PKD
ROOT
HETATM    1  C1  RET A 401     -43.073 -16.462  33.951  1.00  0.00    -0.503 C  
HETATM    2  C2  RET A 401     -43.304 -18.013  34.059  1.00  0.00    -0.719 C  
HETATM    3  C17 RET A 401     -42.415 -16.250  35.302  1.00  0.00    -0.749 C  
HETATM    4  C16 RET A 401     -42.118 -16.005  32.896  1.00  0.00    -0.737 C  
HETATM    5  C3  RET A 401     -44.521 -18.500  33.462  1.00  0.00    -0.772 C  
HETATM    6  C4  RET A 401     -45.742 -17.753  33.836  1.00  0.00    -0.569 C  
HETATM    7  C5  RET A 401     -45.593 -16.265  33.697  1.00  0.00    -0.521 C  
HETATM    8  C6  RET A 401     -44.401 -15.674  33.850  1.00  0.00    -0.514 C  
HETATM    9  C18 RET A 401     -46.886 -15.543  33.370  1.00  0.00    -0.648 C  
ENDROOT
BRANCH   8  10
HETATM   10  C7  RET A 401     -44.254 -14.200  33.942  1.00  0.00    -0.420 C  
HETATM   11  C8  RET A 401     -44.906 -13.384  34.761  1.00  0.00    -0.632 C  
BRANCH  11  12
HETATM   12  C9  RET A 401     -44.760 -11.929  34.871  1.00  0.00    -0.523 C  
HETATM   13  C19 RET A 401     -44.041 -11.212  33.759  1.00  0.00    -0.584 C  
HETATM   14  C10 RET A 401     -45.287 -11.337  35.963  1.00  0.00    -0.634 C  
BRANCH  14  15
HETATM   15  C11 RET A 401     -45.276  -9.952  36.341  1.00  0.00    -0.557 C  
HETATM   16  C12 RET A 401     -45.947  -9.448  37.401  1.00  0.00    -0.506 C  
BRANCH  16  17
HETATM   17  C13 RET A 401     -45.955  -8.076  37.866  1.00  0.00    -0.444 C  
HETATM   18  C14 RET A 401     -46.815  -7.720  38.854  1.00  0.00     1.296 C  
HETATM   19  C20 RET A 401     -44.978  -7.104  37.265  1.00  0.00    -0.132 C  
HETATM   20  C15 RET A 401     -46.969  -6.414  39.472  1.00  0.00     6.235 C  
ENDBRANCH  16  17
ENDBRANCH  14  15
ENDBRANCH  11  12
ENDBRANCH   8  10
TORSDOF 4
ENDMDL
