MODEL        1
REMARK THIS MODEL IS IDENTICAL TO THE INPUT LIGAND AND NOT FROM DOCKING
REMARK 921   NORMALIZED FREE ENERGY PREDICTED BY IDOCK:  -10.60 KCAL/MOL
REMARK 922        TOTAL FREE ENERGY PREDICTED BY IDOCK:  -12.41 KCAL/MOL
REMARK 923 INTER-LIGAND FREE ENERGY PREDICTED BY IDOCK:  -11.84 KCAL/MOL
REMARK 924 INTRA-LIGAND FREE ENERGY PREDICTED BY IDOCK:   -0.57 KCAL/MOL
REMARK 927      BINDING AFFINITY PREDICTED BY RF-SCORE:    0.00 PKD
ROOT
HETATM    1  C10 3C0 A 501     185.728  24.189 526.979  1.00  0.00    -0.469 C  
HETATM    2  O11 3C0 A 501     185.358  23.332 525.895  1.00  0.00    -0.130 OA 
HETATM    3  C03 3C0 A 501     185.143  25.582 526.741  1.00  0.00    -0.482 C  
HETATM    4  C02 3C0 A 501     183.613  25.522 526.725  1.00  0.00    -0.466 C  
HETATM    5  C04 3C0 A 501     185.565  26.466 527.731  1.00  0.00    -0.538 A  
HETATM    6  H11 3C0 A 501     185.721  22.467 526.043  1.00  0.00     0.000 HD 
HETATM    7  O01 3C0 A 501     183.001  24.610 527.281  1.00  0.00    -0.654 OA 
HETATM    8  C09 3C0 A 501     185.479  26.112 529.073  1.00  0.00    -0.656 A  
HETATM    9  C07 3C0 A 501     186.408  28.247 529.693  1.00  0.00    -0.720 A  
HETATM   10  C08 3C0 A 501     185.901  27.003 530.054  1.00  0.00    -0.731 A  
HETATM   11  C05 3C0 A 501     186.071  27.710 527.372  1.00  0.00    -0.663 A  
HETATM   12  C06 3C0 A 501     186.492  28.600 528.352  1.00  0.00    -0.738 A  
ENDROOT
BRANCH   4  13
HETATM   13  O12 3C0 A 501     183.037  26.539 526.031  1.00  0.00    -0.402 OA 
BRANCH  13  14
HETATM   14  C13 3C0 A 501     181.593  26.645 526.135  1.00  0.00    -0.314 C  
HETATM   15  C22 3C0 A 501     181.105  28.586 527.755  1.00  0.00    -0.472 C  
HETATM   16  C23 3C0 A 501     181.087  27.061 527.537  1.00  0.00    -0.734 C  
HETATM   17  C17 3C0 A 501     182.542  29.105 527.490  1.00  0.00    -0.290 C  
HETATM   18  C16 3C0 A 501     182.529  29.466 526.027  1.00  0.00    -0.307 C  
HETATM   19  C15 3C0 A 501     181.087  29.107 525.572  1.00  0.00    -0.279 C  
HETATM   20  O18 3C0 A 501     182.776  30.480 527.053  1.00  0.00    -0.756 OA 
HETATM   21  C14 3C0 A 501     181.042  27.638 525.091  1.00  0.00    -0.735 C  
HETATM   22  N19 3C0 A 501     180.260  29.296 526.774  1.00  0.00    -0.374 N  
HETATM   23  C20 3C0 A 501     180.001  30.709 527.113  1.00  0.00    -0.397 C  
HETATM   24  C21 3C0 A 501     178.906  28.738 526.614  1.00  0.00    -0.530 C  
ENDBRANCH  13  14
ENDBRANCH   4  13
TORSDOF 2
ENDMDL
