MODEL        1
REMARK THIS MODEL IS IDENTICAL TO THE INPUT LIGAND AND NOT FROM DOCKING
REMARK 921   NORMALIZED FREE ENERGY PREDICTED BY IDOCK:   -2.12 KCAL/MOL
REMARK 922        TOTAL FREE ENERGY PREDICTED BY IDOCK:   -2.89 KCAL/MOL
REMARK 923 INTER-LIGAND FREE ENERGY PREDICTED BY IDOCK:   -2.62 KCAL/MOL
REMARK 924 INTRA-LIGAND FREE ENERGY PREDICTED BY IDOCK:   -0.27 KCAL/MOL
REMARK 927      BINDING AFFINITY PREDICTED BY RF-SCORE:    0.00 PKD
ROOT
HETATM    1  C1  RET A 401     -43.281 -16.648  34.526  1.00  0.00    -0.493 C  
HETATM    2  C2  RET A 401     -43.614 -18.109  34.870  1.00  0.00    -0.659 C  
HETATM    3  C17 RET A 401     -42.423 -16.092  35.668  1.00  0.00    -0.681 C  
HETATM    4  C16 RET A 401     -42.418 -16.567  33.257  1.00  0.00    -0.751 C  
HETATM    5  C3  RET A 401     -44.698 -18.644  33.938  1.00  0.00    -0.761 C  
HETATM    6  C4  RET A 401     -45.994 -17.858  34.125  1.00  0.00    -0.537 C  
HETATM    7  C5  RET A 401     -45.791 -16.355  34.092  1.00  0.00    -0.501 C  
HETATM    8  C6  RET A 401     -44.582 -15.808  34.368  1.00  0.00    -0.503 C  
HETATM    9  C18 RET A 401     -47.015 -15.489  33.931  1.00  0.00    -0.649 C  
ENDROOT
BRANCH   8  10
HETATM   10  C7  RET A 401     -44.473 -14.323  34.361  1.00  0.00    -0.231 C  
HETATM   11  C8  RET A 401     -45.119 -13.588  35.277  1.00  0.00    -0.542 C  
BRANCH  11  12
HETATM   12  C9  RET A 401     -44.929 -12.120  35.411  1.00  0.00    -0.487 C  
HETATM   13  C19 RET A 401     -43.788 -11.381  34.724  1.00  0.00    -0.563 C  
HETATM   14  C10 RET A 401     -45.804 -11.531  36.251  1.00  0.00    -0.600 C  
BRANCH  14  15
HETATM   15  C11 RET A 401     -45.683 -10.151  36.696  1.00  0.00    -0.482 C  
HETATM   16  C12 RET A 401     -46.513  -9.780  37.654  1.00  0.00    -0.503 C  
BRANCH  16  17
HETATM   17  C13 RET A 401     -46.278  -8.522  38.366  1.00  0.00    -0.427 C  
HETATM   18  C14 RET A 401     -47.250  -8.183  39.239  1.00  0.00     0.965 C  
HETATM   19  C20 RET A 401     -44.886  -7.911  38.332  1.00  0.00    -0.480 C  
HETATM   20  C15 RET A 401     -47.164  -6.980  40.081  1.00  0.00     6.265 C  
ENDBRANCH  16  17
ENDBRANCH  14  15
ENDBRANCH  11  12
ENDBRANCH   8  10
TORSDOF 4
ENDMDL
