MODEL        1
REMARK THIS MODEL IS IDENTICAL TO THE INPUT LIGAND AND NOT FROM DOCKING
REMARK 921   NORMALIZED FREE ENERGY PREDICTED BY IDOCK:   -0.23 KCAL/MOL
REMARK 922        TOTAL FREE ENERGY PREDICTED BY IDOCK:   -0.23 KCAL/MOL
REMARK 923 INTER-LIGAND FREE ENERGY PREDICTED BY IDOCK:   -0.29 KCAL/MOL
REMARK 924 INTRA-LIGAND FREE ENERGY PREDICTED BY IDOCK:    0.06 KCAL/MOL
REMARK 927      BINDING AFFINITY PREDICTED BY RF-SCORE:    0.00 PKD
ROOT
HETATM    1  C1  RET A 380      42.793   5.187  12.506  1.00  0.00    -0.562 C  
HETATM    2  C2  RET A 380      41.740   5.779  11.521  1.00  0.00     0.044 C  
HETATM    3  C17 RET A 380      44.232   5.029  11.868  1.00  0.00    -0.716 C  
HETATM    4  C16 RET A 380      42.241   3.854  12.790  1.00  0.00     0.026 C  
HETATM    5  C3  RET A 380      42.014   7.254  11.308  1.00  0.00    -0.849 C  
HETATM    6  C4  RET A 380      41.973   8.073  12.518  1.00  0.00    -0.736 C  
HETATM    7  C5  RET A 380      42.644   7.463  13.741  1.00  0.00    -0.623 C  
HETATM    8  C6  RET A 380      43.027   6.068  13.766  1.00  0.00    -0.459 C  
HETATM    9  C18 RET A 380      42.894   8.434  14.868  1.00  0.00     1.291 C  
ENDROOT
BRANCH   8  10
HETATM   10  C7  RET A 380      43.741   5.317  14.887  1.00  0.00    -0.537 C  
HETATM   11  C8  RET A 380      44.259   6.026  15.817  1.00  0.00    -0.443 C  
BRANCH  11  12
HETATM   12  C9  RET A 380      45.006   5.752  17.030  1.00  0.00    -0.451 C  
HETATM   13  C19 RET A 380      45.279   4.329  17.312  1.00  0.00    -0.609 C  
HETATM   14  C10 RET A 380      45.463   6.753  17.776  1.00  0.00    -0.501 C  
BRANCH  14  15
HETATM   15  C11 RET A 380      46.371   6.697  18.936  1.00  0.00    -0.518 C  
HETATM   16  C12 RET A 380      46.767   7.703  19.706  1.00  0.00    -0.517 C  
BRANCH  16  17
HETATM   17  C13 RET A 380      46.445   9.137  19.808  1.00  0.00    -0.517 C  
HETATM   18  C14 RET A 380      46.898   9.839  20.814  1.00  0.00     0.743 C  
HETATM   19  C20 RET A 380      45.519   9.755  18.773  1.00  0.00    -0.550 C  
HETATM   20  C15 RET A 380      46.534  11.215  20.924  1.00  0.00     6.198 C  
ENDBRANCH  16  17
ENDBRANCH  14  15
ENDBRANCH  11  12
ENDBRANCH   8  10
TORSDOF 4
ENDMDL
