REMARK  2 active torsions:
REMARK  status: ('A' for Active; 'I' for Inactive)
REMARK    1  A    between atoms: C9_9  and  C8_11
REMARK    2  A    between atoms: C7_12  and  C6_13
ROOT
HETATM    1  C   7AB A 401      -9.228  32.832   6.487  1.00  0.00     0.040 C
HETATM    2  C20 7AB A 401     -10.449  32.068   7.007  1.00  0.00     0.039 C
HETATM    3  C13 7AB A 401     -10.244  31.017   8.070  1.00  0.00    -0.051 C
HETATM    4  C14 7AB A 401     -11.267  30.291   8.552  1.00  0.00    -0.027 C
HETATM    5  C12 7AB A 401      -8.910  30.795   8.569  1.00  0.00     0.003 C
HETATM    6  C15 7AB A 401     -12.643  30.541   8.089  1.00  0.00     0.035 C
HETATM    7  C11 7AB A 401      -7.848  31.455   8.137  1.00  0.00     0.004 C
HETATM    8  C10 7AB A 401      -7.881  32.495   7.100  1.00  0.00    -0.044 C
HETATM    9  C9  7AB A 401      -6.747  33.131   6.706  1.00  0.00    -0.047 C
HETATM   10  C19 7AB A 401      -5.429  32.769   7.352  1.00  0.00     0.044 C
ENDROOT
BRANCH   9  11
HETATM   11  C8  7AB A 401      -6.835  34.185   5.653  1.00  0.00     0.004 C
HETATM   12  C7  7AB A 401      -5.855  34.898   5.100  1.00  0.00     0.004 C
BRANCH  12  13
HETATM   13  C6  7AB A 401      -6.027  36.002   4.095  1.00  0.00    -0.043 C
HETATM   14  C1  7AB A 401      -4.751  36.693   3.626  1.00  0.00    -0.010 C
HETATM   15  C16 7AB A 401      -3.637  36.686   4.690  1.00  0.00     0.016 C
HETATM   16  C17 7AB A 401      -4.267  36.022   2.340  1.00  0.00     0.016 C
HETATM   17  C2  7AB A 401      -5.062  38.193   3.464  1.00  0.00     0.011 C
HETATM   18  C3  7AB A 401      -6.230  38.570   2.558  1.00  0.00     0.005 C
HETATM   19  C4  7AB A 401      -7.292  37.492   2.430  1.00  0.00     0.031 C
HETATM   20  C5  7AB A 401      -7.143  36.319   3.382  1.00  0.00    -0.069 C
HETATM   21  C18 7AB A 401      -8.309  35.380   3.280  1.00  0.00     0.039 C
ENDBRANCH  12  13
ENDBRANCH   9  11
TORSDOF 2
