REMARK  6 active torsions:
REMARK  status: ('A' for Active; 'I' for Inactive)
REMARK    1  A    between atoms: N2_3  and  C07_7
REMARK    2  A    between atoms: C07_7  and  C06_8
REMARK    3  A    between atoms: C06_8  and  N05_9
REMARK    4  A    between atoms: N1_5  and  C14_28
REMARK    5  A    between atoms: N05_9  and  C04_11
REMARK    6  A    between atoms: C25_21  and  C28_23
ROOT
HETATM    1  C10 6DV A2401     -19.710  14.241  13.200  1.00  0.00     0.105 C
HETATM    2  C09 6DV A2401     -20.344  12.830  13.184  1.00  0.00     0.100 C
HETATM    3  N2  6DV A2401     -20.705  12.378  14.524  1.00  0.00    -0.299 NA
HETATM    4  C13 6DV A2401     -19.545  12.479  15.416  1.00  0.00     0.100 C
HETATM    5  N1  6DV A2401     -18.574  14.329  14.126  1.00  0.00    -0.269 NA
HETATM    6  C12 6DV A2401     -19.046  13.934  15.458  1.00  0.00     0.105 C
ENDROOT
BRANCH   3   7
HETATM    7  C07 6DV A2401     -21.284  11.044  14.494  1.00  0.00     0.100 C
BRANCH   7   8
HETATM    8  C06 6DV A2401     -22.114  10.794  15.762  1.00  0.00     0.104 C
BRANCH   8   9
HETATM    9  N05 6DV A2401     -22.380   9.381  15.978  1.00  0.00    -0.255 NA
HETATM   10  H05 6DV A2401     -23.258   8.982  15.646  1.00  0.00     0.131 HD
BRANCH   9  11
HETATM   11  C04 6DV A2401     -21.456   8.557  16.633  1.00  0.00     0.207 C
HETATM   12  N27 6DV A2401     -19.753   6.936  17.876  1.00  0.00    -0.072 NA
HETATM   13 1H01 6DV A2401     -17.530   8.110  18.526  1.00  0.00     0.126 HD
HETATM   14 2H01 6DV A2401     -18.329   9.564  18.637  1.00  0.00     0.126 HD
HETATM   15  C02 6DV A2401     -19.400   8.240  17.649  1.00  0.00     0.184 C
HETATM   16  C23 6DV A2401     -20.990   6.474  17.457  1.00  0.00     0.236 A
HETATM   17  N22 6DV A2401     -21.866   7.272  16.827  1.00  0.00    -0.185 NA
HETATM   18  N24 6DV A2401     -21.082   5.167  17.800  1.00  0.00    -0.192 NA
HETATM   19  N03 6DV A2401     -20.258   9.079  17.020  1.00  0.00    -0.192 NA
HETATM   20  N01 6DV A2401     -18.176   8.742  18.052  1.00  0.00    -0.275 NA
HETATM   21  C25 6DV A2401     -19.927   4.912  18.396  1.00  0.00     0.201 A
HETATM   22  N26 6DV A2401     -19.070   5.923  18.481  1.00  0.00    -0.161 NA
BRANCH  21  23
HETATM   23  C28 6DV A2401     -19.639   3.552  18.922  1.00  0.00     0.128 A
HETATM   24  C29 6DV A2401     -20.442   2.435  19.161  1.00  0.00     0.039 A
HETATM   25  C30 6DV A2401     -19.620   1.419  19.659  1.00  0.00     0.028 A
HETATM   26  C31 6DV A2401     -18.348   1.960  19.699  1.00  0.00     0.136 A
HETATM   27  O32 6DV A2401     -18.355   3.243  19.255  1.00  0.00    -0.313 OA
ENDBRANCH  21  23
ENDBRANCH   9  11
ENDBRANCH   8   9
ENDBRANCH   7   8
ENDBRANCH   3   7
BRANCH   5  28
HETATM   28  C14 6DV A2401     -17.670  15.398  13.952  1.00  0.00     0.054 A
HETATM   29  F21 6DV A2401     -17.109  14.637  11.740  1.00  0.00    -0.204 F
HETATM   30  C20 6DV A2401     -16.950  15.528  12.748  1.00  0.00     0.144 A
HETATM   31  C15 6DV A2401     -17.467  16.348  14.966  1.00  0.00     0.025 A
HETATM   32  C19 6DV A2401     -16.053  16.584  12.571  1.00  0.00     0.078 A
HETATM   33  C16 6DV A2401     -16.570  17.402  14.785  1.00  0.00     0.040 A
HETATM   34  F18 6DV A2401     -14.994  18.546  13.423  1.00  0.00    -0.205 F
HETATM   35  C17 6DV A2401     -15.863  17.522  13.589  1.00  0.00     0.126 A
ENDBRANCH   5  28
TORSDOF 6
