REMARK  6 active torsions:
REMARK  status: ('A' for Active; 'I' for Inactive)
REMARK    1  A    between atoms: C10_4  and  O1_11
REMARK    2  A    between atoms: O1_11  and  C11_12
REMARK    3  A    between atoms: C11_12  and  C12_13
REMARK    4  A    between atoms: C12_13  and  C13_16
REMARK    5  A    between atoms: C13_16  and  N1_18
REMARK    6  A    between atoms: N1_18  and  C15_20
ROOT
HETATM    1  C1  JRZ A1203       1.285   0.331  51.536  1.00  0.00     0.036 C
HETATM    2  C5  JRZ A1203       1.274   1.454  50.482  1.00  0.00    -0.039 A
HETATM    3  C4  JRZ A1203       2.123   2.498  50.876  1.00  0.00    -0.014 A
HETATM    4  C10 JRZ A1203       2.215   3.658  50.090  1.00  0.00     0.080 A
HETATM    5  C3  JRZ A1203       2.762   2.135  52.240  1.00  0.00     0.038 C
HETATM    6  C2  JRZ A1203       1.830   1.052  52.740  1.00  0.00     0.009 C
HETATM    7  C7  JRZ A1203      -0.400   0.445  48.893  1.00  0.00     0.044 C
HETATM    8  C9  JRZ A1203       1.493   3.743  48.890  1.00  0.00     0.033 A
HETATM    9  C6  JRZ A1203       0.545   1.565  49.305  1.00  0.00    -0.047 A
HETATM   10  C8  JRZ A1203       0.659   2.695  48.503  1.00  0.00     0.006 A
ENDROOT
BRANCH   4  11
HETATM   11  O1  JRZ A1203       3.104   4.717  50.478  1.00  0.00    -0.342 OA
BRANCH  11  12
HETATM   12  C11 JRZ A1203       2.949   6.053  49.986  1.00  0.00     0.200 C
BRANCH  12  13
HETATM   13  C12 JRZ A1203       3.618   7.065  50.957  1.00  0.00     0.157 C
HETATM   14  O2  JRZ A1203       3.517   8.359  50.405  1.00  0.00    -0.388 OA
HETATM   15  H2  JRZ A1203       3.926   8.978  50.999  1.00  0.00     0.210 HD
BRANCH  13  16
HETATM   16  C13 JRZ A1203       2.986   7.036  52.381  1.00  0.00     0.082 C
HETATM   17  C14 JRZ A1203       1.465   7.034  52.305  1.00  0.00     0.026 C
BRANCH  16  18
HETATM   18  N1  JRZ A1203       3.401   8.236  53.102  1.00  0.00    -0.309 NA
HETATM   19  H1  JRZ A1203       2.832   9.036  52.825  1.00  0.00     0.123 HD
BRANCH  18  20
HETATM   20  C15 JRZ A1203       3.400   8.086  54.546  1.00  0.00     0.048 C
HETATM   21  C17 JRZ A1203       2.143   8.723  55.130  1.00  0.00     0.023 C
HETATM   22  C16 JRZ A1203       4.607   8.814  55.119  1.00  0.00     0.023 C
ENDBRANCH  18  20
ENDBRANCH  16  18
ENDBRANCH  13  16
ENDBRANCH  12  13
ENDBRANCH  11  12
ENDBRANCH   4  11
TORSDOF 6
