REMARK  7 active torsions:
REMARK  status: ('A' for Active; 'I' for Inactive)
REMARK    1  A    between atoms: C10_1  and  C11_2
REMARK    2  A    between atoms: C10_1  and  C09_5
REMARK    3  A    between atoms: C09_5  and  N08_6
REMARK    4  A    between atoms: C16_9  and  C18_18
REMARK    5  A    between atoms: N05_17  and  C04_27
REMARK    6  A    between atoms: C04_27  and  C03_28
REMARK    7  A    between atoms: C03_28  and  C02_29
ROOT
HETATM    1  C10 8JN A2401      22.190 171.293  15.602  1.00  0.00     0.044 C
ENDROOT
BRANCH   1   2
HETATM    2  C11 8JN A2401      23.267 170.451  14.824  1.00  0.00     0.157 C
HETATM    3  O12 8JN A2401      24.236 171.315  14.282  1.00  0.00    -0.395 OA
HETATM    4  H12 8JN A2401      24.887 170.806  13.812  1.00  0.00     0.209 HD
ENDBRANCH   1   2
BRANCH   1   5
HETATM    5  C09 8JN A2401      22.714 172.478  16.511  1.00  0.00     0.103 C
BRANCH   5   6
HETATM    6  N08 8JN A2401      21.624 173.294  17.284  1.00  0.00    -0.188 N
HETATM    7  C13 8JN A2401      20.304 172.803  17.581  1.00  0.00     0.105 A
HETATM    8  N17 8JN A2401      19.646 171.569  17.303  1.00  0.00    -0.234 NA
HETATM    9  C16 8JN A2401      18.363 171.597  17.809  1.00  0.00     0.096 A
HETATM   10  H17 8JN A2401      20.062 170.782  16.804  1.00  0.00     0.136 HD
HETATM   11  N15 8JN A2401      18.205 172.848  18.410  1.00  0.00    -0.232 NA
HETATM   12  O07 8JN A2401      23.147 175.068  17.463  1.00  0.00    -0.259 OA
HETATM   13  C06 8JN A2401      22.057 174.651  17.703  1.00  0.00     0.290 C
HETATM   14  C14 8JN A2401      19.389 173.610  18.283  1.00  0.00     0.154 A
HETATM   15  C27 8JN A2401      19.737 175.014  18.756  1.00  0.00     0.263 C
HETATM   16  O28 8JN A2401      19.015 175.726  19.342  1.00  0.00    -0.272 OA
HETATM   17  N05 8JN A2401      21.078 175.446  18.422  1.00  0.00    -0.164 N
BRANCH   9  18
HETATM   18  C18 8JN A2401      17.288 170.444  17.727  1.00  0.00     0.027 C
HETATM   19  C24 8JN A2401      16.490 168.166  17.105  1.00  0.00    -0.009 C
HETATM   20  C25 8JN A2401      17.369 169.284  16.538  1.00  0.00     0.018 C
HETATM   21  C20 8JN A2401      14.875 169.875  17.986  1.00  0.00    -0.009 C
HETATM   22  C22 8JN A2401      16.960 169.580  19.024  1.00  0.00     0.003 C
HETATM   23  C21 8JN A2401      15.447 169.654  19.346  1.00  0.00     0.008 C
HETATM   24  C23 8JN A2401      17.209 168.182  18.548  1.00  0.00     0.008 C
HETATM   25  C26 8JN A2401      15.022 168.649  17.123  1.00  0.00     0.007 C
HETATM   26  C19 8JN A2401      15.843 170.854  17.252  1.00  0.00     0.018 C
ENDBRANCH   9  18
BRANCH  17  27
HETATM   27  C04 8JN A2401      21.513 176.886  18.886  1.00  0.00     0.103 C
BRANCH  27  28
HETATM   28  C03 8JN A2401      21.273 178.010  17.829  1.00  0.00     0.016 C
BRANCH  28  29
HETATM   29  C02 8JN A2401      22.414 178.165  16.774  1.00  0.00    -0.002 C
HETATM   30  C01 8JN A2401      22.172 179.345  15.781  1.00  0.00     0.004 C
ENDBRANCH  28  29
ENDBRANCH  27  28
ENDBRANCH  17  27
ENDBRANCH   5   6
ENDBRANCH   1   5
TORSDOF 7
