REMARK  5 active torsions:
REMARK  status: ('A' for Active; 'I' for Inactive)
REMARK    1  A    between atoms: N02_2  and  C05_5
REMARK    2  A    between atoms: C05_5  and  C06_6
REMARK    3  A    between atoms: C07_7  and  C08_8
REMARK    4  A    between atoms: C08_8  and  O09_9
REMARK    5  A    between atoms: O09_9  and  C10_10
ROOT
HETATM    1  C01 IXO A 501      -7.631 -13.852  -4.183  1.00  0.00     0.267 C
HETATM    2  N02 IXO A 501      -7.292 -12.436  -4.216  1.00  0.00    -0.047 N
HETATM    3  C04 IXO A 501      -5.835 -12.215  -3.837  1.00  0.00     0.267 C
HETATM    4  C03 IXO A 501      -7.521 -11.936  -5.544  1.00  0.00     0.267 C
ENDROOT
BRANCH   2   5
HETATM    5  C05 IXO A 501      -8.111 -11.752  -3.260  1.00  0.00     0.318 C
BRANCH   5   6
HETATM    6  C06 IXO A 501      -7.830 -10.306  -3.011  1.00  0.00    -0.070 C
HETATM    7  C07 IXO A 501      -7.636  -9.059  -2.792  1.00  0.00    -0.072 C
BRANCH   7   8
HETATM    8  C08 IXO A 501      -7.426  -7.524  -2.648  1.00  0.00     0.257 C
BRANCH   8   9
HETATM    9  O09 IXO A 501      -6.761  -7.063  -1.460  1.00  0.00    -0.314 OA
BRANCH   9  10
HETATM   10  C10 IXO A 501      -5.615  -7.672  -1.028  1.00  0.00     0.193 C
HETATM   11  N11 IXO A 501      -4.735  -8.397  -1.851  1.00  0.00    -0.107 NA
HETATM   12  O12 IXO A 501      -3.707  -8.845  -1.070  1.00  0.00    -0.244 OA
HETATM   13  C13 IXO A 501      -3.788  -8.166   0.188  1.00  0.00     0.227 C
HETATM   14  C14 IXO A 501      -5.141  -7.656   0.285  1.00  0.00     0.059 C
ENDBRANCH   9  10
ENDBRANCH   8   9
ENDBRANCH   7   8
ENDBRANCH   5   6
ENDBRANCH   2   5
TORSDOF 5
