REMARK  3 active torsions:
REMARK  status: ('A' for Active; 'I' for Inactive)
REMARK    1  A    between atoms: C5'_1  and  C4'_5
REMARK    2  A    between atoms: N5'_2  and  C51_26
REMARK    3  A    between atoms: C1'_8  and  N9_14
ROOT
HETATM    1  C5' NEC A 400      -3.969 -41.658  19.108  1.00  0.00     0.232 C
HETATM    2  N5' NEC A 400      -4.509 -41.284  17.948  1.00  0.00    -0.256 N
HETATM    3  O5' NEC A 400      -2.768 -41.854  19.243  1.00  0.00    -0.277 OA
HETATM    4  H5' NEC A 400      -5.513 -41.110  17.902  1.00  0.00     0.130 HD
ENDROOT
BRANCH   1   5
HETATM    5  C4' NEC A 400      -4.932 -41.860  20.245  1.00  0.00     0.233 C
HETATM    6  O3' NEC A 400      -4.939 -40.291  22.133  1.00  0.00    -0.386 OA
HETATM    7  O4' NEC A 400      -5.278 -43.248  20.254  1.00  0.00    -0.343 OA
HETATM    8  C1' NEC A 400      -4.996 -43.848  21.526  1.00  0.00     0.232 C
HETATM    9  H2' NEC A 400      -6.096 -43.242  23.860  1.00  0.00     0.210 HD
HETATM   10  C2' NEC A 400      -4.722 -42.709  22.499  1.00  0.00     0.190 C
HETATM   11  H3' NEC A 400      -4.595 -40.074  22.992  1.00  0.00     0.210 HD
HETATM   12  O2' NEC A 400      -5.882 -42.493  23.316  1.00  0.00    -0.385 OA
HETATM   13  C3' NEC A 400      -4.379 -41.510  21.627  1.00  0.00     0.184 C
BRANCH   8  14
HETATM   14  N9  NEC A 400      -3.829 -44.778  21.459  1.00  0.00    -0.187 NA
HETATM   15  C8  NEC A 400      -2.918 -44.901  20.465  1.00  0.00     0.177 A
HETATM   16  C5  NEC A 400      -2.325 -46.356  21.964  1.00  0.00     0.138 A
HETATM   17  N7  NEC A 400      -2.003 -45.856  20.763  1.00  0.00    -0.237 NA
HETATM   18  C4  NEC A 400      -3.529 -45.650  22.418  1.00  0.00     0.147 A
HETATM   19  N3  NEC A 400      -4.071 -45.964  23.620  1.00  0.00    -0.221 NA
HETATM   20  C2  NEC A 400      -3.532 -46.922  24.400  1.00  0.00     0.224 A
HETATM   21  N1  NEC A 400      -2.429 -47.617  24.045  1.00  0.00    -0.222 NA
HETATM   22  C6  NEC A 400      -1.785 -47.394  22.871  1.00  0.00     0.134 A
HETATM   23  N6  NEC A 400      -0.678 -48.091  22.524  1.00  0.00    -0.285 NA
HETATM   24  H61 NEC A 400      -0.306 -48.806  23.149  1.00  0.00     0.125 HD
HETATM   25  H62 NEC A 400      -0.215 -47.901  21.635  1.00  0.00     0.125 HD
ENDBRANCH   8  14
ENDBRANCH   1   5
BRANCH   2  26
HETATM   26  C51 NEC A 400      -3.709 -41.117  16.750  1.00  0.00     0.086 C
HETATM   27  C52 NEC A 400      -4.549 -40.861  15.524  1.00  0.00     0.020 C
ENDBRANCH   2  26
TORSDOF 3
