MODEL        1
REMARK THIS MODEL IS IDENTICAL TO THE INPUT LIGAND AND NOT FROM DOCKING
REMARK 921   NORMALIZED FREE ENERGY PREDICTED BY IDOCK:   -7.53 KCAL/MOL
REMARK 922        TOTAL FREE ENERGY PREDICTED BY IDOCK:   -8.21 KCAL/MOL
REMARK 923 INTER-LIGAND FREE ENERGY PREDICTED BY IDOCK:   -7.97 KCAL/MOL
REMARK 924 INTRA-LIGAND FREE ENERGY PREDICTED BY IDOCK:   -0.24 KCAL/MOL
REMARK 927      BINDING AFFINITY PREDICTED BY RF-SCORE:    0.00 PKD
ROOT
HETATM    1  C4  3WC A 500     -20.884 -11.604  25.098  1.00  0.00    -0.718 A  
HETATM    2  C11 3WC A 500     -21.992 -12.347  25.508  1.00  0.00    -0.433 A  
HETATM    3  C24 3WC A 500     -21.003 -13.682  28.699  1.00  0.00    -0.473 A  
HETATM    4  N11 3WC A 500     -22.001 -13.009  26.689  1.00  0.00    -0.473 NA 
HETATM    5  C26 3WC A 500     -19.912 -13.660  29.573  1.00  0.00    -0.627 A  
HETATM    6  C22 3WC A 500     -20.946 -12.974  27.496  1.00  0.00    -0.399 A  
HETATM    7  C2  3WC A 500     -19.799 -12.234  27.135  1.00  0.00    -0.563 A  
HETATM    8  C28 3WC A 500     -18.770 -12.921  29.219  1.00  0.00    -0.571 A  
HETATM    9  C6  3WC A 500     -18.657 -10.794  25.511  1.00  0.00    -0.543 C  
HETATM   10  C5  3WC A 500     -19.767 -11.541  25.918  1.00  0.00    -0.609 A  
HETATM   11  C20 3WC A 500     -18.700 -12.212  28.003  1.00  0.00    -0.497 A  
ENDROOT
BRANCH   2  12
HETATM   12  N10 3WC A 500     -23.081 -12.441  24.728  1.00  0.00    -0.366 NA 
HETATM   13  N12 3WC A 500     -25.689 -12.359  23.823  1.00  0.00    -0.887 NA 
HETATM   14  C10 3WC A 500     -25.302 -13.208  24.970  1.00  0.00    -0.269 C  
HETATM   15  C13 3WC A 500     -24.986 -11.054  23.868  1.00  0.00     0.231 C  
HETATM   16  C15 3WC A 500     -23.484 -11.353  23.787  1.00  0.00    -0.373 C  
HETATM   17  C8  3WC A 500     -23.900 -13.681  24.788  1.00  0.00    -0.397 C  
HETATM   18  H12 3WC A 500     -26.700 -12.240  23.767  1.00  0.00     0.000 HD 
ENDBRANCH   2  12
TORSDOF 1
ENDMDL
