REMARK  4 active torsions:
REMARK  status: ('A' for Active; 'I' for Inactive)
REMARK    1  A    between atoms: C6_8  and  C7_10
REMARK    2  A    between atoms: C8_11  and  C9_12
REMARK    3  A    between atoms: C10_14  and  C11_15
REMARK    4  A    between atoms: C12_16  and  C13_17
ROOT
HETATM    1  C1  RET A1296       6.801  62.071  17.573  1.00  0.00    -0.010 C
HETATM    2  C2  RET A1296       6.158  62.767  16.343  1.00  0.00     0.011 C
HETATM    3  C17 RET A1296       5.754  61.000  18.011  1.00  0.00     0.016 C
HETATM    4  C16 RET A1296       6.859  63.153  18.688  1.00  0.00     0.016 C
HETATM    5  C3  RET A1296       7.103  63.404  15.364  1.00  0.00     0.005 C
HETATM    6  C4  RET A1296       8.234  62.474  14.925  1.00  0.00     0.031 C
HETATM    7  C5  RET A1296       8.921  61.732  16.078  1.00  0.00    -0.069 C
HETATM    8  C6  RET A1296       8.238  61.430  17.292  1.00  0.00    -0.043 C
HETATM    9  C18 RET A1296      10.363  61.431  15.716  1.00  0.00     0.039 C
ENDROOT
BRANCH   8  10
HETATM   10  C7  RET A1296       8.826  60.475  18.292  1.00  0.00     0.004 C
HETATM   11  C8  RET A1296       9.599  59.372  18.126  1.00  0.00     0.003 C
BRANCH  11  12
HETATM   12  C9  RET A1296       9.935  58.307  19.067  1.00  0.00    -0.050 C
HETATM   13  C19 RET A1296       9.480  58.474  20.516  1.00  0.00     0.044 C
HETATM   14  C10 RET A1296      10.631  57.241  18.534  1.00  0.00     0.003 C
BRANCH  14  15
HETATM   15  C11 RET A1296      11.123  56.102  19.299  1.00  0.00     0.001 C
HETATM   16  C12 RET A1296      11.590  54.948  18.705  1.00  0.00     0.003 C
BRANCH  16  17
HETATM   17  C13 RET A1296      11.119  54.188  17.523  1.00  0.00    -0.055 C
HETATM   18  C14 RET A1296      11.841  53.049  17.319  1.00  0.00    -0.027 C
HETATM   19  C20 RET A1296       9.947  54.627  16.661  1.00  0.00     0.043 C
HETATM   20  C15 RET A1296      11.581  52.002  16.385  1.00  0.00     0.035 C
ENDBRANCH  16  17
ENDBRANCH  14  15
ENDBRANCH  11  12
ENDBRANCH   8  10
TORSDOF 4
