MODEL        1
REMARK THIS MODEL IS IDENTICAL TO THE INPUT LIGAND AND NOT FROM DOCKING
REMARK 921   NORMALIZED FREE ENERGY PREDICTED BY IDOCK:   -8.12 KCAL/MOL
REMARK 922        TOTAL FREE ENERGY PREDICTED BY IDOCK:  -11.53 KCAL/MOL
REMARK 923 INTER-LIGAND FREE ENERGY PREDICTED BY IDOCK:  -10.97 KCAL/MOL
REMARK 924 INTRA-LIGAND FREE ENERGY PREDICTED BY IDOCK:   -0.56 KCAL/MOL
REMARK 927      BINDING AFFINITY PREDICTED BY RF-SCORE:    0.00 PKD
ROOT
HETATM    1  C10 6DY A2401       0.375  14.257  13.198  1.00  0.00    -0.361 C  
HETATM    2  C09 6DY A2401      -0.218  12.871  13.262  1.00  0.00    -0.325 C  
HETATM    3  N08 6DY A2401      -0.794  12.686  14.647  1.00  0.00    -0.276 NA 
HETATM    4  C11 6DY A2401       1.530  14.495  14.177  1.00  0.00    -0.279 C  
HETATM    5  C13 6DY A2401       0.308  12.836  15.655  1.00  0.00    -0.414 C  
HETATM    6  C12 6DY A2401       0.951  14.212  15.581  1.00  0.00    -0.407 C  
ENDROOT
BRANCH   3   7
HETATM    7  C07 6DY A2401      -1.213  11.254  14.653  1.00  0.00    -0.354 C  
BRANCH   7   8
HETATM    8  C06 6DY A2401      -2.157  11.071  15.845  1.00  0.00    -0.329 C  
BRANCH   8   9
HETATM    9  N05 6DY A2401      -2.459   9.718  16.048  1.00  0.00    -0.285 NA 
HETATM   10  H05 6DY A2401      -3.356   9.400  15.680  1.00  0.00     0.000 HD 
BRANCH   9  11
HETATM   11  C04 6DY A2401      -1.703   8.777  16.675  1.00  0.00    -0.191 C  
HETATM   12  N25 6DY A2401       0.002   7.093  18.024  1.00  0.00    -0.239 NA 
HETATM   13  N01 6DY A2401       1.564   8.860  18.338  1.00  0.00    -0.699 NA 
HETATM   14 1H01 6DY A2401       2.191   8.226  18.834  1.00  0.00     0.000 HD 
HETATM   15  C21 6DY A2401      -1.276   6.652  17.486  1.00  0.00    -0.466 A  
HETATM   16 2H01 6DY A2401       1.832   9.836  18.209  1.00  0.00     0.000 HD 
HETATM   17  N03 6DY A2401      -0.468   9.251  17.187  1.00  0.00    -0.426 NA 
HETATM   18  N20 6DY A2401      -2.094   7.513  16.815  1.00  0.00    -0.428 NA 
HETATM   19  C02 6DY A2401       0.360   8.413  17.842  1.00  0.00    -0.268 C  
HETATM   20  N22 6DY A2401      -1.396   5.350  17.794  1.00  0.00    -0.443 NA 
HETATM   21  C23 6DY A2401      -0.237   5.005  18.487  1.00  0.00    -0.464 A  
HETATM   22  N24 6DY A2401       0.632   6.051  18.606  1.00  0.00    -0.712 NA 
BRANCH  21  23
HETATM   23  C26 6DY A2401       0.033   3.697  18.972  1.00  0.00    -0.243 A  
HETATM   24  C27 6DY A2401      -0.750   2.597  19.194  1.00  0.00    -0.632 A  
HETATM   25  C28 6DY A2401       0.100   1.513  19.675  1.00  0.00    -0.490 A  
HETATM   26  C29 6DY A2401       1.402   2.066  19.715  1.00  0.00    -0.188 A  
HETATM   27  O30 6DY A2401       1.324   3.389  19.295  1.00  0.00    -0.471 OA 
ENDBRANCH  21  23
ENDBRANCH   9  11
ENDBRANCH   8   9
ENDBRANCH   7   8
ENDBRANCH   3   7
BRANCH   4  28
HETATM   28  C14 6DY A2401       2.313  15.807  14.041  1.00  0.00    -0.353 A  
HETATM   29  C19 6DY A2401       2.204  16.907  14.927  1.00  0.00    -0.256 A  
HETATM   30  C15 6DY A2401       3.188  16.058  12.971  1.00  0.00    -0.319 A  
HETATM   31  C18 6DY A2401       2.917  18.099  14.772  1.00  0.00    -0.182 A  
HETATM   32  C17 6DY A2401       3.783  18.289  13.690  1.00  0.00    -0.202 A  
HETATM   33  C16 6DY A2401       3.902  17.234  12.790  1.00  0.00    -0.268 A  
ENDBRANCH   4  28
TORSDOF 6
ENDMDL
