REMARK  3 active torsions:
REMARK  status: ('A' for Active; 'I' for Inactive)
REMARK    1  A    between atoms: C1_1  and  N1_11
REMARK    2  A    between atoms: C17_12  and  C19_21
REMARK    3  A    between atoms: C20_22  and  N4_28
ROOT
HETATM    1  C1  SUV A2001      51.065   6.873  55.061  1.00  0.00     0.227 A
HETATM    2  C7  SUV A2001      48.611   9.044  54.061  1.00  0.00     0.037 A
HETATM    3  O1  SUV A2001      50.274   7.311  54.118  1.00  0.00    -0.279 OA
HETATM    4  C8  SUV A2001      49.552   8.289  54.626  1.00  0.00     0.111 A
HETATM    5  C6  SUV A2001      47.973  10.028  54.796  1.00  0.00     0.022 A
HETATM    6  C3  SUV A2001      49.914   8.446  55.906  1.00  0.00     0.100 A
HETATM    7 CL1  SUV A2001      47.586  11.394  57.073  1.00  0.00    -0.083 Cl
HETATM    8  N2  SUV A2001      50.868   7.553  56.183  1.00  0.00    -0.210 NA
HETATM    9  C5  SUV A2001      48.345  10.192  56.121  1.00  0.00     0.043 A
HETATM   10  C4  SUV A2001      49.332   9.378  56.660  1.00  0.00     0.050 A
ENDROOT
BRANCH   1  11
HETATM   11  N1  SUV A2001      51.928   5.873  54.855  1.00  0.00    -0.237 NA
HETATM   12  C17 SUV A2001      54.550   7.695  53.369  1.00  0.00     0.236 C
HETATM   13  C14 SUV A2001      54.848   5.528  54.313  1.00  0.00     0.063 C
HETATM   14  C12 SUV A2001      52.842   6.111  52.661  1.00  0.00     0.109 C
HETATM   15  C15 SUV A2001      53.978   4.624  55.193  1.00  0.00     0.035 C
HETATM   16  C11 SUV A2001      51.895   5.284  53.512  1.00  0.00     0.109 C
HETATM   17  N3  SUV A2001      54.068   6.441  53.433  1.00  0.00    -0.236 N
HETATM   18  C30 SUV A2001      55.815   4.670  53.495  1.00  0.00     0.024 C
HETATM   19  O2  SUV A2001      55.542   8.030  54.017  1.00  0.00    -0.274 OA
HETATM   20  C16 SUV A2001      52.881   5.438  55.890  1.00  0.00     0.095 C
BRANCH  12  21
HETATM   21  C19 SUV A2001      53.863   8.668  52.642  1.00  0.00     0.056 A
HETATM   22  C20 SUV A2001      53.959   8.848  51.254  1.00  0.00     0.076 A
HETATM   23  C21 SUV A2001      53.213   9.857  50.648  1.00  0.00     0.025 A
HETATM   24  C29 SUV A2001      51.476  11.336  53.529  1.00  0.00     0.017 C
HETATM   25  C24 SUV A2001      53.034   9.511  53.379  1.00  0.00     0.021 A
HETATM   26  C22 SUV A2001      52.386  10.692  51.393  1.00  0.00     0.009 A
HETATM   27  C23 SUV A2001      52.297  10.514  52.766  1.00  0.00    -0.031 A
BRANCH  22  28
HETATM   28  N4  SUV A2001      54.727   8.096  50.464  1.00  0.00    -0.057 NA
HETATM   29  C28 SUV A2001      56.281   6.922  49.707  1.00  0.00     0.150 A
HETATM   30  N5  SUV A2001      54.437   7.845  49.303  1.00  0.00    -0.178 NA
HETATM   31  C27 SUV A2001      55.382   7.090  48.757  1.00  0.00     0.150 A
HETATM   32  N6  SUV A2001      55.807   7.587  50.753  1.00  0.00    -0.178 NA
ENDBRANCH  22  28
ENDBRANCH  12  21
ENDBRANCH   1  11
TORSDOF 3
