MODEL        1
REMARK THIS MODEL IS IDENTICAL TO THE INPUT LIGAND AND NOT FROM DOCKING
REMARK 921   NORMALIZED FREE ENERGY PREDICTED BY IDOCK:   -7.36 KCAL/MOL
REMARK 922        TOTAL FREE ENERGY PREDICTED BY IDOCK:   -9.38 KCAL/MOL
REMARK 923 INTER-LIGAND FREE ENERGY PREDICTED BY IDOCK:   -9.09 KCAL/MOL
REMARK 924 INTRA-LIGAND FREE ENERGY PREDICTED BY IDOCK:   -0.30 KCAL/MOL
REMARK 927      BINDING AFFINITY PREDICTED BY RF-SCORE:    0.00 PKD
ROOT
HETATM    1  C1  8TZ A2201      14.509   6.753  55.807  1.00  0.00    -0.482 A  
HETATM    2  C2  8TZ A2201      14.174   5.788  54.814  1.00  0.00    -0.615 A  
HETATM    3  F1  8TZ A2201      12.889   5.683  54.373  1.00  0.00    -0.828 F  
HETATM    4  C3  8TZ A2201      15.168   4.943  54.287  1.00  0.00    -0.814 A  
HETATM    5  C4  8TZ A2201      16.485   5.052  54.742  1.00  0.00    -0.704 A  
HETATM    6  C5  8TZ A2201      16.819   6.007  55.725  1.00  0.00    -0.485 A  
HETATM    7  C6  8TZ A2201      15.822   6.854  56.257  1.00  0.00    -0.507 A  
ENDROOT
BRANCH   6   8
HETATM    8  C9  8TZ A2201      18.236   6.113  56.207  1.00  0.00    -0.431 C  
HETATM    9  O1  8TZ A2201      18.917   7.111  55.481  1.00  0.00    -0.251 OA 
HETATM   10  H1  8TZ A2201      19.814   7.178  55.786  1.00  0.00     0.000 HD 
BRANCH   8  11
HETATM   11  C10 8TZ A2201      18.940   4.779  56.002  1.00  0.00    -0.513 A  
HETATM   12  N1  8TZ A2201      19.823   4.492  55.017  1.00  0.00    -0.194 NA 
HETATM   13  N2  8TZ A2201      18.791   3.674  56.774  1.00  0.00    -0.185 NA 
HETATM   14  H1  8TZ A2201      20.133   5.128  54.282  1.00  0.00     0.000 HD 
HETATM   15  C11 8TZ A2201      20.221   3.210  55.182  1.00  0.00    -0.303 A  
HETATM   16  C12 8TZ A2201      19.581   2.707  56.268  1.00  0.00    -0.633 A  
ENDBRANCH   8  11
ENDBRANCH   6   8
BRANCH   7  17
HETATM   17  C7  8TZ A2201      16.189   7.893  57.329  1.00  0.00    -0.591 C  
BRANCH  17  18
HETATM   18  C8  8TZ A2201      15.767   9.296  56.853  1.00  0.00    -0.663 C  
HETATM   19  C13 8TZ A2201      16.232  10.379  57.931  1.00  0.00    -0.886 C  
ENDBRANCH  17  18
ENDBRANCH   7  17
TORSDOF 4
ENDMDL
