MODEL        1
REMARK THIS MODEL IS IDENTICAL TO THE INPUT LIGAND AND NOT FROM DOCKING
REMARK 921   NORMALIZED FREE ENERGY PREDICTED BY IDOCK:   -9.68 KCAL/MOL
REMARK 922        TOTAL FREE ENERGY PREDICTED BY IDOCK:  -12.41 KCAL/MOL
REMARK 923 INTER-LIGAND FREE ENERGY PREDICTED BY IDOCK:  -11.94 KCAL/MOL
REMARK 924 INTRA-LIGAND FREE ENERGY PREDICTED BY IDOCK:   -0.47 KCAL/MOL
REMARK 927      BINDING AFFINITY PREDICTED BY RF-SCORE:    0.00 PKD
ROOT
HETATM    1  CAA H8J A1206      22.959  22.397  12.467  1.00  0.00    -0.698 C  
HETATM    2  CAK H8J A1206      21.605  21.780  12.644  1.00  0.00    -0.368 C  
ENDROOT
BRANCH   2   3
HETATM    3  CAW H8J A1206      21.742  20.278  12.846  1.00  0.00    -0.306 C  
BRANCH   3   4
HETATM    4  CAL H8J A1206      20.806  19.842  13.955  1.00  0.00    -0.330 C  
HETATM    5  HAE H8J A1206      20.716  18.361  15.240  1.00  0.00     0.000 HD 
HETATM    6  OAE H8J A1206      21.303  18.634  14.545  1.00  0.00    -0.536 OA 
ENDBRANCH   3   4
BRANCH   3   7
HETATM    7  NAO H8J A1206      21.444  19.573  11.633  1.00  0.00    -0.303 N  
HETATM    8  CAP H8J A1206      22.404  18.639  11.109  1.00  0.00    -0.328 C  
HETATM    9  HAO H8J A1206      20.561  19.732  11.148  1.00  0.00     0.000 HD 
HETATM   10  OAD H8J A1206      23.458  18.472  11.694  1.00  0.00    -0.305 OA 
BRANCH   8  11
HETATM   11  CAV H8J A1206      22.133  17.849   9.811  1.00  0.00    -0.419 C  
HETATM   12  CAN H8J A1206      22.423  18.736   8.616  1.00  0.00    -0.333 C  
HETATM   13  NAY H8J A1206      22.465  17.997   7.363  1.00  0.00    -0.105 NA 
HETATM   14  CAX H8J A1206      23.662  17.160   7.375  1.00  0.00    -0.309 C  
HETATM   15  CAB H8J A1206      22.530  18.930   6.267  1.00  0.00    -0.319 C  
HETATM   16  CAM H8J A1206      23.565  16.289   6.121  1.00  0.00    -0.518 C  
HETATM   17  CAR H8J A1206      24.386  15.165   6.157  1.00  0.00    -0.616 A  
HETATM   18  CAJ H8J A1206      24.934  14.354   5.270  1.00  0.00    -0.512 A  
HETATM   19  NAZ H8J A1206      25.661  13.421   5.849  1.00  0.00    -0.513 NA 
HETATM   20  CAT H8J A1206      25.612  13.592   7.166  1.00  0.00    -0.479 A  
HETATM   21  CAC H8J A1206      26.389  12.385   5.162  1.00  0.00    -0.503 C  
HETATM   22  CAI H8J A1206      26.121  12.991   8.239  1.00  0.00    -0.664 A  
HETATM   23  CAG H8J A1206      25.819  13.499   9.499  1.00  0.00    -0.575 A  
HETATM   24  CAH H8J A1206      24.998  14.618   9.664  1.00  0.00    -0.588 A  
HETATM   25  CAS H8J A1206      24.484  15.219   8.514  1.00  0.00    -0.583 A  
HETATM   26  CAQ H8J A1206      23.652  16.355   8.517  1.00  0.00    -0.532 C  
HETATM   27  CAU H8J A1206      24.816  14.678   7.334  1.00  0.00    -0.670 A  
HETATM   28  CAF H8J A1206      22.943  16.706   9.672  1.00  0.00    -0.533 C  
ENDBRANCH   8  11
ENDBRANCH   3   7
ENDBRANCH   2   3
TORSDOF 4
ENDMDL
