REMARK  2 active torsions:
REMARK  status: ('A' for Active; 'I' for Inactive)
REMARK    1  A    between atoms: C28_1  and  O11_16
REMARK    2  A    between atoms: O11_16  and  C5_17
ROOT
HETATM    1  C28 0HK A2001      43.680  91.776  57.919  1.00  0.00     0.305 C
HETATM    2  C30 0HK A2001      42.334  92.126  57.315  1.00  0.00     0.214 C
HETATM    3  O29 0HK A2001      43.903  91.990  59.104  1.00  0.00    -0.261 OA
HETATM    4  C43 0HK A2001      41.983  90.223  53.606  1.00  0.00     0.045 A
HETATM    5  C32 0HK A2001      42.256  91.584  55.914  1.00  0.00     0.036 A
HETATM    6  O33 0HK A2001      41.356  91.534  58.085  1.00  0.00    -0.370 OA
HETATM    7  S44 0HK A2001      41.781  89.960  55.365  1.00  0.00    -0.098 SA
HETATM    8  C31 0HK A2001      42.117  93.615  57.284  1.00  0.00     0.036 A
HETATM    9  S37 0HK A2001      40.588  94.525  57.187  1.00  0.00    -0.098 SA
HETATM   10  C41 0HK A2001      42.538  92.222  54.725  1.00  0.00     0.015 A
HETATM   11  C34 0HK A2001      43.054  94.628  57.303  1.00  0.00     0.015 A
HETATM   12  H33 0HK A2001      41.493  90.594  58.105  1.00  0.00     0.212 HD
HETATM   13  C42 0HK A2001      42.399  91.531  53.557  1.00  0.00     0.008 A
HETATM   14  C36 0HK A2001      41.278  96.174  57.192  1.00  0.00     0.045 A
HETATM   15  C35 0HK A2001      42.624  95.923  57.261  1.00  0.00     0.008 A
ENDROOT
BRANCH   1  16
HETATM   16  O11 0HK A2001      44.743  91.526  57.025  1.00  0.00    -0.309 OA
BRANCH  16  17
HETATM   17  C5  0HK A2001      46.088  91.783  57.369  1.00  0.00     0.132 C
HETATM   18  C9  0HK A2001      46.258  92.704  54.606  1.00  0.00     0.180 C
HETATM   19  C4  0HK A2001      46.469  93.192  56.913  1.00  0.00     0.068 C
HETATM   20  C3  0HK A2001      47.264  93.171  55.626  1.00  0.00     0.222 C
HETATM   21  O10 0HK A2001      46.597  92.043  53.403  1.00  0.00    -0.364 OA
HETATM   22  C8  0HK A2001      46.500  91.242  54.562  1.00  0.00     0.180 C
HETATM   23  C7  0HK A2001      47.639  91.056  55.530  1.00  0.00     0.222 C
HETATM   24  N2  0HK A2001      48.351  92.268  55.578  1.00  0.00    -0.044 N
HETATM   25  C6  0HK A2001      46.965  90.655  56.817  1.00  0.00     0.068 C
HETATM   26  C12 0HK A2001      49.240  92.447  54.431  1.00  0.00     0.267 C
HETATM   27  C1  0HK A2001      49.291  92.380  56.669  1.00  0.00     0.267 C
ENDBRANCH  16  17
ENDBRANCH   1  16
TORSDOF 2
