REMARK  4 active torsions:
REMARK  status: ('A' for Active; 'I' for Inactive)
REMARK    1  A    between atoms: C6_8  and  C7_10
REMARK    2  A    between atoms: C8_11  and  C9_12
REMARK    3  A    between atoms: C10_14  and  C11_15
REMARK    4  A    between atoms: C12_16  and  C13_17
ROOT
HETATM    1  C1  RET A1332     -18.916  60.429  -1.721  1.00  0.00    -0.010 C
HETATM    2  C2  RET A1332     -19.295  58.985  -2.016  1.00  0.00     0.011 C
HETATM    3  C17 RET A1332     -19.378  60.813  -0.318  1.00  0.00     0.016 C
HETATM    4  C16 RET A1332     -19.641  61.303  -2.737  1.00  0.00     0.016 C
HETATM    5  C3  RET A1332     -18.423  58.013  -1.230  1.00  0.00     0.005 C
HETATM    6  C4  RET A1332     -16.976  58.144  -1.677  1.00  0.00     0.031 C
HETATM    7  C5  RET A1332     -16.543  59.598  -1.826  1.00  0.00    -0.069 C
HETATM    8  C6  RET A1332     -17.411  60.632  -1.854  1.00  0.00    -0.043 C
HETATM    9  C18 RET A1332     -15.066  59.869  -1.969  1.00  0.00     0.039 C
ENDROOT
BRANCH   8  10
HETATM   10  C7  RET A1332     -16.873  62.013  -1.990  1.00  0.00     0.004 C
HETATM   11  C8  RET A1332     -16.472  62.585  -0.853  1.00  0.00     0.003 C
BRANCH  11  12
HETATM   12  C9  RET A1332     -15.907  63.936  -0.709  1.00  0.00    -0.050 C
HETATM   13  C19 RET A1332     -16.460  65.064  -1.536  1.00  0.00     0.044 C
HETATM   14  C10 RET A1332     -14.919  64.111   0.204  1.00  0.00     0.003 C
BRANCH  14  15
HETATM   15  C11 RET A1332     -14.279  65.417   0.453  1.00  0.00     0.001 C
HETATM   16  C12 RET A1332     -13.382  65.754   1.409  1.00  0.00     0.003 C
BRANCH  16  17
HETATM   17  C13 RET A1332     -12.747  64.938   2.482  1.00  0.00    -0.055 C
HETATM   18  C14 RET A1332     -12.320  65.574   3.598  1.00  0.00    -0.027 C
HETATM   19  C20 RET A1332     -12.554  63.457   2.329  1.00  0.00     0.043 C
HETATM   20  C15 RET A1332     -11.654  64.935   4.740  1.00  0.00     0.035 C
ENDBRANCH  16  17
ENDBRANCH  14  15
ENDBRANCH  11  12
ENDBRANCH   8  10
TORSDOF 4
