MODEL        1
REMARK THIS MODEL IS IDENTICAL TO THE INPUT LIGAND AND NOT FROM DOCKING
REMARK 921   NORMALIZED FREE ENERGY PREDICTED BY IDOCK:   -3.95 KCAL/MOL
REMARK 922        TOTAL FREE ENERGY PREDICTED BY IDOCK:   -5.08 KCAL/MOL
REMARK 923 INTER-LIGAND FREE ENERGY PREDICTED BY IDOCK:   -4.87 KCAL/MOL
REMARK 924 INTRA-LIGAND FREE ENERGY PREDICTED BY IDOCK:   -0.20 KCAL/MOL
REMARK 927      BINDING AFFINITY PREDICTED BY RF-SCORE:    0.00 PKD
ROOT
HETATM    1  C1  RET A 977      62.335   6.706  -9.374  1.00  0.00    -0.481 C  
HETATM    2  C2  RET A 977      63.457   6.267  -8.464  1.00  0.00    -0.622 C  
HETATM    3  C17 RET A 977      61.144   5.748  -9.226  1.00  0.00    -0.535 C  
HETATM    4  C16 RET A 977      62.815   6.605 -10.793  1.00  0.00    -0.200 C  
HETATM    5  C3  RET A 977      63.192   6.598  -7.027  1.00  0.00    -0.777 C  
HETATM    6  C4  RET A 977      63.018   8.132  -6.821  1.00  0.00    -0.785 C  
HETATM    7  C5  RET A 977      62.202   8.798  -7.930  1.00  0.00    -0.637 C  
HETATM    8  C6  RET A 977      61.903   8.139  -9.082  1.00  0.00    -0.533 C  
HETATM    9  C18 RET A 977      61.765  10.225  -7.602  1.00  0.00    -0.853 C  
ENDROOT
BRANCH   8  10
HETATM   10  C7  RET A 977      61.108   8.753 -10.175  1.00  0.00    -0.517 C  
HETATM   11  C8  RET A 977      59.845   9.178  -9.907  1.00  0.00    -0.610 C  
BRANCH  11  12
HETATM   12  C9  RET A 977      58.870   9.821 -10.813  1.00  0.00    -0.636 C  
HETATM   13  C19 RET A 977      59.402   9.998 -12.198  1.00  0.00    -0.341 C  
HETATM   14  C10 RET A 977      57.626  10.211 -10.424  1.00  0.00    -0.717 C  
BRANCH  14  15
HETATM   15  C11 RET A 977      56.582  10.871 -11.236  1.00  0.00    -0.647 C  
HETATM   16  C12 RET A 977      55.335  11.243 -10.848  1.00  0.00    -0.357 C  
BRANCH  16  17
HETATM   17  C13 RET A 977      54.540  11.154  -9.586  1.00  0.00    -0.483 C  
HETATM   18  C14 RET A 977      53.373  11.788  -9.452  1.00  0.00     0.652 C  
HETATM   19  C20 RET A 977      55.103  10.303  -8.482  1.00  0.00    -0.851 C  
HETATM   20  C15 RET A 977      52.545  11.720  -8.232  1.00  0.00     5.060 C  
ENDBRANCH  16  17
ENDBRANCH  14  15
ENDBRANCH  11  12
ENDBRANCH   8  10
TORSDOF 4
ENDMDL
