MODEL        1
REMARK THIS MODEL IS IDENTICAL TO THE INPUT LIGAND AND NOT FROM DOCKING
REMARK 921   NORMALIZED FREE ENERGY PREDICTED BY IDOCK:  -11.04 KCAL/MOL
REMARK 922        TOTAL FREE ENERGY PREDICTED BY IDOCK:  -20.41 KCAL/MOL
REMARK 923 INTER-LIGAND FREE ENERGY PREDICTED BY IDOCK:  -20.07 KCAL/MOL
REMARK 924 INTRA-LIGAND FREE ENERGY PREDICTED BY IDOCK:   -0.34 KCAL/MOL
REMARK 927      BINDING AFFINITY PREDICTED BY RF-SCORE:    0.00 PKD
ROOT
HETATM    1  C1  9AF A1201      10.259  23.314 -46.898  1.00  0.00    -0.419 C  
HETATM    2  O1  9AF A1201       9.698  22.272 -47.246  1.00  0.00    -0.209 OA 
ENDROOT
BRANCH   1   3
HETATM    3  O   9AF A1201       9.775  23.867 -45.717  1.00  0.00    -0.391 OA 
HETATM    4  C   9AF A1201       8.730  23.286 -44.967  1.00  0.00    -0.453 C  
ENDBRANCH   1   3
BRANCH   1   5
HETATM    5  C2  9AF A1201      11.403  23.942 -47.643  1.00  0.00    -0.533 C  
HETATM    6  C10 9AF A1201      11.775  23.295 -48.961  1.00  0.00    -0.466 C  
HETATM    7  C7  9AF A1201      13.277  23.218 -49.129  1.00  0.00    -0.408 C  
HETATM    8  C4  9AF A1201      11.962  25.730 -45.887  1.00  0.00    -0.791 C  
HETATM    9  C3  9AF A1201      12.240  24.897 -47.081  1.00  0.00    -0.506 C  
HETATM   10  C5  9AF A1201      14.085  24.200 -48.585  1.00  0.00    -0.438 C  
HETATM   11  N   9AF A1201      13.583  24.967 -47.511  1.00  0.00    -0.661 NA 
HETATM   12  C6  9AF A1201      15.547  24.402 -48.783  1.00  0.00    -0.880 C  
BRANCH   6  13
HETATM   13  C11 9AF A1201      11.335  24.217 -50.115  1.00  0.00    -0.414 A  
HETATM   14  C12 9AF A1201      10.881  25.538 -49.883  1.00  0.00    -0.473 A  
HETATM   15  C15 9AF A1201      11.267  24.639 -52.533  1.00  0.00    -0.403 A  
HETATM   16  C32 9AF A1201      11.508  23.762 -51.452  1.00  0.00    -0.510 A  
HETATM   17  C14 9AF A1201      10.849  25.967 -52.271  1.00  0.00    -0.494 A  
HETATM   18  C13 9AF A1201      10.652  26.401 -50.954  1.00  0.00    -0.532 A  
BRANCH  15  19
HETATM   19  N1  9AF A1201      11.306  24.298 -53.903  1.00  0.00    -0.746 N  
HETATM   20  H1  9AF A1201      10.975  25.029 -54.532  1.00  0.00     0.000 HD 
BRANCH  19  21
HETATM   21  C16 9AF A1201      11.727  23.114 -54.547  1.00  0.00    -0.421 C  
HETATM   22  O4  9AF A1201      12.275  22.150 -53.989  1.00  0.00    -0.273 OA 
BRANCH  21  23
HETATM   23  N2  9AF A1201      11.550  23.179 -55.934  1.00  0.00    -0.639 N  
HETATM   24  H2  9AF A1201      11.136  24.026 -56.324  1.00  0.00     0.000 HD 
BRANCH  23  25
HETATM   25  C17 9AF A1201      11.923  22.106 -56.859  1.00  0.00    -0.455 C  
BRANCH  25  26
HETATM   26  C18 9AF A1201      13.178  22.544 -57.646  1.00  0.00    -0.345 C  
BRANCH  26  27
HETATM   27  C19 9AF A1201      14.442  22.502 -56.768  1.00  0.00    -0.250 C  
BRANCH  27  28
HETATM   28  N3  9AF A1201      15.583  23.047 -57.555  1.00  0.00    -0.235 NA 
HETATM   29  C31 9AF A1201      16.634  21.982 -57.796  1.00  0.00    -0.221 C  
HETATM   30  C30 9AF A1201      17.754  22.563 -58.705  1.00  0.00    -0.214 C  
HETATM   31  C22 9AF A1201      18.386  23.791 -58.010  1.00  0.00    -0.468 C  
HETATM   32  C20 9AF A1201      16.150  24.284 -56.886  1.00  0.00    -0.245 C  
HETATM   33  C21 9AF A1201      17.307  24.885 -57.734  1.00  0.00    -0.481 C  
BRANCH  31  34
HETATM   34  C23 9AF A1201      19.573  24.297 -58.791  1.00  0.00    -0.568 A  
HETATM   35  C29 9AF A1201      19.456  25.403 -59.663  1.00  0.00    -0.406 A  
HETATM   36  C27 9AF A1201      20.609  25.892 -60.324  1.00  0.00    -0.402 A  
HETATM   37  C26 9AF A1201      21.869  25.262 -60.157  1.00  0.00    -0.690 A  
HETATM   38  C24 9AF A1201      20.842  23.671 -58.617  1.00  0.00    -0.731 A  
HETATM   39  C25 9AF A1201      21.975  24.147 -59.300  1.00  0.00    -0.676 A  
BRANCH  36  40
HETATM   40  O5  9AF A1201      20.597  27.054 -61.093  1.00  0.00    -0.401 OA 
HETATM   41  C28 9AF A1201      19.431  27.326 -61.860  1.00  0.00    -0.480 C  
ENDBRANCH  36  40
ENDBRANCH  31  34
ENDBRANCH  27  28
ENDBRANCH  26  27
ENDBRANCH  25  26
ENDBRANCH  23  25
ENDBRANCH  21  23
ENDBRANCH  19  21
ENDBRANCH  15  19
ENDBRANCH   6  13
BRANCH   7  42
HETATM   42  C8  9AF A1201      13.804  21.957 -49.718  1.00  0.00    -0.368 C  
HETATM   43  O2  9AF A1201      14.981  21.623 -49.814  1.00  0.00    -0.642 OA 
BRANCH  42  44
HETATM   44  O3  9AF A1201      12.789  21.098 -50.141  1.00  0.00    -0.322 OA 
HETATM   45  C9  9AF A1201      13.070  19.846 -50.736  1.00  0.00    -0.413 C  
ENDBRANCH  42  44
ENDBRANCH   7  42
ENDBRANCH   1   5
TORSDOF 14
ENDMDL
