REMARK  6 active torsions:
REMARK  status: ('A' for Active; 'I' for Inactive)
REMARK    1  A    between atoms: C5_2  and  C8_7
REMARK    2  A    between atoms: C2_5  and  C1_19
REMARK    3  A    between atoms: C1_19  and  N1_20
REMARK    4  A    between atoms: C13_12  and  C14_13
REMARK    5  A    between atoms: C15_21  and  C18_33
REMARK    6  A    between atoms: C18_33  and  C19_34
ROOT
HETATM    1  C4  OLM A1201     -38.457  63.365  29.082  1.00  0.00     0.009 A
HETATM    2  C5  OLM A1201     -39.204  62.344  29.672  1.00  0.00    -0.017 A
HETATM    3  C3  OLM A1201     -39.090  64.377  28.362  1.00  0.00     0.005 A
HETATM    4  C6  OLM A1201     -40.598  62.367  29.534  1.00  0.00     0.009 A
HETATM    5  C2  OLM A1201     -40.480  64.412  28.223  1.00  0.00    -0.033 A
HETATM    6  C7  OLM A1201     -41.235  63.386  28.813  1.00  0.00     0.005 A
ENDROOT
BRANCH   2   7
HETATM    7  C8  OLM A1201     -38.569  61.328  30.405  1.00  0.00    -0.008 A
HETATM    8  C9  OLM A1201     -38.978  61.134  31.733  1.00  0.00     0.009 A
HETATM    9  C10 OLM A1201     -38.395  60.151  32.530  1.00  0.00     0.001 A
HETATM   10  C12 OLM A1201     -36.959  59.530  30.691  1.00  0.00     0.012 A
HETATM   11  C11 OLM A1201     -37.384  59.349  32.008  1.00  0.00     0.001 A
HETATM   12  C13 OLM A1201     -37.543  60.510  29.881  1.00  0.00     0.023 A
BRANCH  12  13
HETATM   13  C14 OLM A1201     -37.093  60.646  28.632  1.00  0.00     0.159 A
HETATM   14  N4  OLM A1201     -37.002  60.651  26.635  1.00  0.00    -0.070 NA
HETATM   15  H5  OLM A1201     -38.696  59.991  27.438  1.00  0.00     0.158 HD
HETATM   16  N3  OLM A1201     -35.872  61.115  27.122  1.00  0.00    -0.028 NA
HETATM   17  N5  OLM A1201     -37.752  60.367  27.521  1.00  0.00    -0.142 NA
HETATM   18  N2  OLM A1201     -35.908  61.125  28.297  1.00  0.00    -0.115 NA
ENDBRANCH  12  13
ENDBRANCH   2   7
BRANCH   5  19
HETATM   19  C1  OLM A1201     -40.992  65.501  27.482  1.00  0.00     0.132 C
BRANCH  19  20
HETATM   20  N1  OLM A1201     -42.461  65.501  27.376  1.00  0.00    -0.221 NA
HETATM   21  C15 OLM A1201     -43.398  66.051  28.173  1.00  0.00     0.091 A
HETATM   22  O1  OLM A1201     -41.944  64.919  24.460  1.00  0.00    -0.643 OA
HETATM   23  H3  OLM A1201     -46.736  66.246  26.107  1.00  0.00     0.211 HD
HETATM   24  N6  OLM A1201     -44.607  65.823  27.667  1.00  0.00    -0.240 NA
HETATM   25  C16 OLM A1201     -44.446  65.136  26.546  1.00  0.00     0.098 A
HETATM   26  O2  OLM A1201     -42.661  63.038  25.258  1.00  0.00    -0.643 OA
HETATM   27  O3  OLM A1201     -46.837  65.303  26.157  1.00  0.00    -0.383 OA
HETATM   28  C17 OLM A1201     -43.136  64.940  26.359  1.00  0.00     0.122 A
HETATM   29  C22 OLM A1201     -45.637  64.676  25.668  1.00  0.00     0.104 C
HETATM   30  C21 OLM A1201     -42.571  64.284  25.337  1.00  0.00     0.223 C
HETATM   31  C23 OLM A1201     -45.441  65.138  24.215  1.00  0.00     0.048 C
HETATM   32  C24 OLM A1201     -45.801  63.138  25.749  1.00  0.00     0.048 C
BRANCH  21  33
HETATM   33  C18 OLM A1201     -43.248  66.847  29.497  1.00  0.00     0.068 C
BRANCH  33  34
HETATM   34  C19 OLM A1201     -42.366  66.102  30.471  1.00  0.00     0.004 C
HETATM   35  C20 OLM A1201     -42.758  66.654  31.824  1.00  0.00     0.004 C
ENDBRANCH  33  34
ENDBRANCH  21  33
ENDBRANCH  19  20
ENDBRANCH   5  19
TORSDOF 6
