MODEL        1
REMARK THIS MODEL IS IDENTICAL TO THE INPUT LIGAND AND NOT FROM DOCKING
REMARK 921   NORMALIZED FREE ENERGY PREDICTED BY IDOCK:   -9.32 KCAL/MOL
REMARK 922        TOTAL FREE ENERGY PREDICTED BY IDOCK:  -14.60 KCAL/MOL
REMARK 923 INTER-LIGAND FREE ENERGY PREDICTED BY IDOCK:  -13.13 KCAL/MOL
REMARK 924 INTRA-LIGAND FREE ENERGY PREDICTED BY IDOCK:   -1.47 KCAL/MOL
REMARK 927      BINDING AFFINITY PREDICTED BY RF-SCORE:    0.00 PKD
ROOT
HETATM    1  C1  A4R A2003      28.280  -0.105 -20.090  1.00  0.00    -0.546 C  
HETATM    2  C2  A4R A2003      27.517   0.679 -21.137  1.00  0.00    -0.331 A  
HETATM    3  N3  A4R A2003      26.234   0.646 -21.338  1.00  0.00    -0.350 NA 
HETATM    4  N4  A4R A2003      25.980   1.479 -22.337  1.00  0.00    -0.582 NA 
HETATM    5  C5  A4R A2003      27.071   2.018 -22.734  1.00  0.00    -0.319 A  
HETATM    6  C6  A4R A2003      27.143   3.052 -23.905  1.00  0.00    -0.516 C  
HETATM    7  N9  A4R A2003      28.068   1.522 -21.969  1.00  0.00    -0.237 NA 
HETATM    8  C8  A4R A2003      26.927   2.345 -25.230  1.00  0.00    -0.721 C  
HETATM    9  C7  A4R A2003      26.040   4.101 -23.776  1.00  0.00    -0.574 C  
ENDROOT
BRANCH   7  10
HETATM   10  C10 A4R A2003      29.388   1.736 -21.969  1.00  0.00    -0.195 C  
HETATM   11  C11 A4R A2003      30.062   1.560 -23.397  1.00  0.00    -0.805 C  
HETATM   12  C12 A4R A2003      31.550   2.033 -23.277  1.00  0.00    -0.378 C  
HETATM   13  C13 A4R A2003      32.178   1.187 -22.178  1.00  0.00    -0.394 C  
HETATM   14  C14 A4R A2003      32.051   2.084 -20.971  1.00  0.00    -0.255 C  
HETATM   15  C15 A4R A2003      31.340   3.360 -21.592  1.00  0.00    -0.270 C  
HETATM   16  N17 A4R A2003      31.622   3.241 -22.837  1.00  0.00    -0.545 NA 
HETATM   17  C16 A4R A2003      29.858   3.213 -21.309  1.00  0.00    -0.062 C  
BRANCH  16  18
HETATM   18  C18 A4R A2003      32.828   3.789 -23.124  1.00  0.00    -0.345 C  
BRANCH  18  19
HETATM   19  C19 A4R A2003      32.901   5.368 -22.887  1.00  0.00    -0.256 C  
BRANCH  19  20
HETATM   20  C20 A4R A2003      34.282   5.952 -23.247  1.00  0.00    -0.339 C  
BRANCH  20  21
HETATM   21  N21 A4R A2003      34.466   7.175 -22.515  1.00  0.00    -0.363 N  
HETATM   22  O23 A4R A2003      36.168   6.247 -21.331  1.00  0.00    -0.306 OA 
HETATM   23  H21 A4R A2003      33.882   7.991 -22.696  1.00  0.00     0.000 HD 
HETATM   24  C22 A4R A2003      35.522   7.207 -21.500  1.00  0.00    -0.319 C  
BRANCH  24  25
HETATM   25  C24 A4R A2003      35.802   8.456 -20.672  1.00  0.00    -0.474 C  
HETATM   26  C25 A4R A2003      35.347   8.215 -19.115  1.00  0.00    -0.315 C  
HETATM   27  C26 A4R A2003      35.974   9.234 -18.489  1.00  0.00     0.570 C  
HETATM   28  C27 A4R A2003      37.407   9.230 -19.146  1.00  0.00    -0.591 C  
HETATM   29  C28 A4R A2003      37.139   8.660 -20.596  1.00  0.00    -0.570 C  
ENDBRANCH  24  25
ENDBRANCH  20  21
BRANCH  20  30
HETATM   30  C29 A4R A2003      34.270   6.199 -24.734  1.00  0.00    -0.403 A  
HETATM   31  C32 A4R A2003      33.752   6.956 -27.034  1.00  0.00    -0.591 A  
HETATM   32  C30 A4R A2003      35.118   5.561 -25.649  1.00  0.00    -0.286 A  
HETATM   33  S33 A4R A2003      33.301   7.162 -25.543  1.00  0.00    -0.430 SA 
HETATM   34  C31 A4R A2003      34.811   6.020 -27.050  1.00  0.00    -1.035 A  
ENDBRANCH  20  30
ENDBRANCH  19  20
ENDBRANCH  18  19
ENDBRANCH  16  18
ENDBRANCH   7  10
TORSDOF 7
ENDMDL
