REMARK  2 active torsions:
REMARK  status: ('A' for Active; 'I' for Inactive)
REMARK    1  A    between atoms: C02_4  and  O12_13
REMARK    2  A    between atoms: O12_13  and  C13_14
ROOT
HETATM    1  C10 3C0 A1202     -26.723   0.723   6.564  1.00  0.00     0.174 C
HETATM    2  O11 3C0 A1202     -26.586   0.986   7.963  1.00  0.00    -0.394 OA
HETATM    3  C03 3C0 A1202     -25.416   1.062   5.858  1.00  0.00     0.140 C
HETATM    4  C02 3C0 A1202     -24.235   0.577   6.711  1.00  0.00     0.272 C
HETATM    5  C04 3C0 A1202     -25.409   0.454   4.617  1.00  0.00    -0.033 A
HETATM    6  H11 3C0 A1202     -27.401   0.775   8.403  1.00  0.00     0.209 HD
HETATM    7  C05 3C0 A1202     -24.660   1.000   3.602  1.00  0.00     0.004 A
HETATM    8  C07 3C0 A1202     -25.366  -0.750   2.120  1.00  0.00     0.000 A
HETATM    9  O01 3C0 A1202     -24.327   0.489   7.935  1.00  0.00    -0.264 OA
HETATM   10  C06 3C0 A1202     -24.628   0.388   2.367  1.00  0.00     0.000 A
HETATM   11  C09 3C0 A1202     -26.136  -0.700   4.387  1.00  0.00     0.004 A
HETATM   12  C08 3C0 A1202     -26.128  -1.297   3.136  1.00  0.00     0.000 A
ENDROOT
BRANCH   4  13
HETATM   13  O12 3C0 A1202     -23.139   0.240   5.998  1.00  0.00    -0.311 OA
BRANCH  13  14
HETATM   14  C13 3C0 A1202     -21.899   0.446   6.683  1.00  0.00     0.132 C
HETATM   15  C15 3C0 A1202     -20.319   1.370   4.853  1.00  0.00     0.222 C
HETATM   16  C14 3C0 A1202     -21.118   1.671   6.148  1.00  0.00     0.068 C
HETATM   17  N19 3C0 A1202     -19.353   0.278   5.068  1.00  0.00    -0.044 N
HETATM   18  C20 3C0 A1202     -18.364   0.115   3.986  1.00  0.00     0.267 C
HETATM   19  C21 3C0 A1202     -18.513   0.483   6.263  1.00  0.00     0.267 C
HETATM   20  C22 3C0 A1202     -20.288  -0.850   5.187  1.00  0.00     0.222 C
HETATM   21  C23 3C0 A1202     -21.025  -0.800   6.547  1.00  0.00     0.068 C
HETATM   22  C17 3C0 A1202     -21.281  -0.660   3.985  1.00  0.00     0.180 C
HETATM   23  C16 3C0 A1202     -21.280   0.838   3.750  1.00  0.00     0.180 C
HETATM   24  O18 3C0 A1202     -20.835  -0.092   2.711  1.00  0.00    -0.364 OA
ENDBRANCH  13  14
ENDBRANCH   4  13
TORSDOF 2
