MODEL        1
REMARK THIS MODEL IS IDENTICAL TO THE INPUT LIGAND AND NOT FROM DOCKING
REMARK 921   NORMALIZED FREE ENERGY PREDICTED BY IDOCK:  -10.97 KCAL/MOL
REMARK 922        TOTAL FREE ENERGY PREDICTED BY IDOCK:  -22.82 KCAL/MOL
REMARK 923 INTER-LIGAND FREE ENERGY PREDICTED BY IDOCK:  -19.31 KCAL/MOL
REMARK 924 INTRA-LIGAND FREE ENERGY PREDICTED BY IDOCK:   -3.51 KCAL/MOL
REMARK 927      BINDING AFFINITY PREDICTED BY RF-SCORE:    0.00 PKD
ROOT
HETATM    1  C1  UKA A1200      -5.403 -11.128  49.465  1.00  0.00    -0.414 C  
HETATM    2  O3  UKA A1200      -5.576 -12.503  49.107  1.00  0.00    -0.600 OA 
HETATM    3  C2  UKA A1200      -5.108 -10.230  48.272  1.00  0.00    -0.453 C  
HETATM    4  O2  UKA A1200      -5.735 -10.642  47.065  1.00  0.00    -0.905 OA 
HETATM    5  H3  UKA A1200      -5.760 -13.063  49.851  1.00  0.00     0.000 HD 
HETATM    6  C3  UKA A1200      -3.608 -10.308  48.118  1.00  0.00    -0.441 C  
HETATM    7  H2  UKA A1200      -6.679 -10.593  47.162  1.00  0.00     0.000 HD 
HETATM    8  C4  UKA A1200      -4.161 -11.001  50.329  1.00  0.00    -0.408 C  
HETATM    9  O1  UKA A1200      -3.103 -10.716  49.404  1.00  0.00    -0.399 OA 
ENDROOT
BRANCH   6  10
HETATM   10  C5  UKA A1200      -3.071  -8.983  47.659  1.00  0.00    -0.400 C  
HETATM   11  O4  UKA A1200      -3.473  -7.970  48.199  1.00  0.00    -0.691 OA 
HETATM   12  N2  UKA A1200      -2.166  -8.962  46.660  1.00  0.00    -0.700 N  
HETATM   13  H2  UKA A1200      -1.872  -9.847  46.246  1.00  0.00     0.000 HD 
BRANCH  12  14
HETATM   14  C6  UKA A1200      -1.590  -7.719  46.147  1.00  0.00    -0.549 C  
HETATM   15  C7  UKA A1200      -1.065  -7.806  44.733  1.00  0.00    -0.656 C  
ENDBRANCH  12  14
ENDBRANCH   6  10
BRANCH   8  16
HETATM   16  N1  UKA A1200      -4.329  -9.927  51.368  1.00  0.00    -0.455 NA 
HETATM   17  C10 UKA A1200      -4.908 -10.116  52.548  1.00  0.00    -0.360 A  
HETATM   18  N5  UKA A1200      -5.467 -11.213  53.094  1.00  0.00    -0.368 NA 
HETATM   19  C12 UKA A1200      -5.996 -11.170  54.316  1.00  0.00    -0.095 A  
HETATM   20  C8  UKA A1200      -3.944  -8.643  51.309  1.00  0.00    -0.187 A  
HETATM   21  N4  UKA A1200      -5.990 -10.020  55.012  1.00  0.00    -0.334 NA 
HETATM   22  C11 UKA A1200      -5.455  -8.894  54.519  1.00  0.00    -0.135 A  
HETATM   23  N3  UKA A1200      -4.278  -8.013  52.455  1.00  0.00    -0.468 NA 
HETATM   24  C9  UKA A1200      -4.882  -8.926  53.246  1.00  0.00     0.029 A  
BRANCH  19  25
HETATM   25  C27 UKA A1200      -6.665 -12.361  54.929  1.00  0.00    -0.239 C  
HETATM   26  O5  UKA A1200      -6.525 -13.478  54.454  1.00  0.00    -0.361 OA 
HETATM   27  H7  UKA A1200      -7.455 -11.088  56.291  1.00  0.00     0.000 HD 
HETATM   28  N7  UKA A1200      -7.482 -12.049  55.949  1.00  0.00    -0.368 N  
BRANCH  28  29
HETATM   29  C28 UKA A1200      -8.397 -12.959  56.604  1.00  0.00    -0.273 C  
BRANCH  29  30
HETATM   30  C29 UKA A1200      -7.802 -13.478  57.891  1.00  0.00    -0.374 C  
BRANCH  30  31
HETATM   31  N8  UKA A1200      -7.727 -12.511  58.973  1.00  0.00    -0.579 N  
HETATM   32  H8  UKA A1200      -6.841 -12.030  59.128  1.00  0.00     0.000 HD 
BRANCH  31  33
HETATM   33  C30 UKA A1200      -8.747 -12.219  59.770  1.00  0.00    -0.288 C  
HETATM   34  O6  UKA A1200      -9.825 -12.732  59.604  1.00  0.00    -0.420 OA 
BRANCH  33  35
HETATM   35  N9  UKA A1200      -8.555 -11.337  60.743  1.00  0.00    -0.183 N  
HETATM   36  H9  UKA A1200      -7.631 -10.914  60.830  1.00  0.00     0.000 HD 
BRANCH  35  37
HETATM   37  C31 UKA A1200      -9.587 -10.934  61.699  1.00  0.00    -0.150 C  
HETATM   38  C32 UKA A1200     -10.527  -9.893  61.095  1.00  0.00    -0.245 C  
HETATM   39  N10 UKA A1200     -10.518  -8.749  63.227  1.00  0.00    -0.112 NA 
HETATM   40  C33 UKA A1200     -11.396  -9.191  62.135  1.00  0.00    -0.201 C  
HETATM   41  C35 UKA A1200      -8.883 -10.401  62.953  1.00  0.00    -0.127 C  
HETATM   42  C34 UKA A1200      -9.866  -9.830  63.960  1.00  0.00    -0.079 C  
BRANCH  39  43
HETATM   43  C40 UKA A1200     -10.274  -7.381  63.542  1.00  0.00    -0.108 A  
HETATM   44  N11 UKA A1200      -9.295  -7.063  64.437  1.00  0.00    -0.084 NA 
HETATM   45  C39 UKA A1200      -8.988  -5.801  64.772  1.00  0.00    -0.094 A  
HETATM   46  C38 UKA A1200      -9.681  -4.734  64.194  1.00  0.00    -0.224 A  
HETATM   47  C37 UKA A1200     -10.693  -5.003  63.275  1.00  0.00    -0.166 A  
HETATM   48  C36 UKA A1200     -10.990  -6.331  62.949  1.00  0.00    -0.194 A  
ENDBRANCH  39  43
ENDBRANCH  35  37
ENDBRANCH  33  35
ENDBRANCH  31  33
ENDBRANCH  30  31
ENDBRANCH  29  30
ENDBRANCH  28  29
ENDBRANCH  19  25
BRANCH  22  49
HETATM   49  N6  UKA A1200      -5.428  -7.797  55.305  1.00  0.00    -0.574 NA 
HETATM   50  H6  UKA A1200      -5.225  -6.882  54.901  1.00  0.00     0.000 HD 
BRANCH  49  51
HETATM   51  C13 UKA A1200      -5.689  -7.924  56.731  1.00  0.00    -0.318 C  
HETATM   52  C24 UKA A1200     -10.318  -9.356  55.717  1.00  0.00    -0.658 A  
HETATM   53  C14 UKA A1200      -6.963  -7.198  57.143  1.00  0.00    -0.304 C  
HETATM   54  C19 UKA A1200      -7.092  -6.289  61.310  1.00  0.00    -0.226 A  
HETATM   55  C22 UKA A1200      -8.673  -8.983  57.436  1.00  0.00    -0.170 A  
HETATM   56  C15 UKA A1200      -6.999  -6.930  58.601  1.00  0.00    -0.270 A  
HETATM   57  C18 UKA A1200      -7.726  -5.492  60.370  1.00  0.00    -0.140 A  
HETATM   58  C16 UKA A1200      -8.131  -7.959  56.681  1.00  0.00    -0.358 A  
HETATM   59  C26 UKA A1200      -8.671  -7.624  55.444  1.00  0.00    -0.532 A  
HETATM   60  C17 UKA A1200      -7.676  -5.806  59.029  1.00  0.00    -0.362 A  
HETATM   61  C20 UKA A1200      -6.409  -7.417  60.901  1.00  0.00    -0.288 A  
HETATM   62  C23 UKA A1200      -9.768  -9.685  56.947  1.00  0.00    -0.314 A  
HETATM   63  C21 UKA A1200      -6.363  -7.738  59.541  1.00  0.00    -0.316 A  
HETATM   64  C25 UKA A1200      -9.768  -8.318  54.958  1.00  0.00    -0.620 A  
ENDBRANCH  49  51
ENDBRANCH  22  49
ENDBRANCH   8  16
TORSDOF 13
ENDMDL
