REMARK  4 active torsions:
REMARK  status: ('A' for Active; 'I' for Inactive)
REMARK    1  A    between atoms: C4_8  and  O1_17
REMARK    2  A    between atoms: O1_17  and  C5_18
REMARK    3  A    between atoms: C5_18  and  C6_19
REMARK    4  A    between atoms: C6_19  and  N1_20
ROOT
HETATM    1  C1  ZOT A3001      14.011  -1.942  54.562  1.00  0.00     0.042 A
HETATM    2  C14 ZOT A3001      14.787  -1.526  53.490  1.00  0.00     0.021 A
HETATM    3 CL1  ZOT A3001      12.507  -2.699  54.307  1.00  0.00    -0.084 Cl
HETATM    4  C13 ZOT A3001      16.009  -0.908  53.724  1.00  0.00     0.017 A
HETATM    5  C12 ZOT A3001      16.464  -0.729  55.027  1.00  0.00     0.022 A
HETATM    6  C3  ZOT A3001      15.665  -1.120  56.095  1.00  0.00     0.020 A
HETATM    7  C2  ZOT A3001      14.447  -1.737  55.858  1.00  0.00     0.031 A
HETATM    8  C4  ZOT A3001      15.904  -1.053  57.463  1.00  0.00     0.085 C
HETATM    9  C9  ZOT A3001      17.141  -1.105  58.105  1.00  0.00     0.042 C
HETATM   10  C16 ZOT A3001      21.060  -1.668  56.817  1.00  0.00     0.001 A
HETATM   11  C10 ZOT A3001      18.413  -1.198  57.550  1.00  0.00    -0.009 A
HETATM   12  C18 ZOT A3001      19.268  -1.878  58.411  1.00  0.00     0.009 A
HETATM   13  C11 ZOT A3001      18.874  -0.783  56.307  1.00  0.00     0.020 A
HETATM   14  C17 ZOT A3001      20.591  -2.112  58.050  1.00  0.00     0.001 A
HETATM   15  C15 ZOT A3001      20.203  -0.997  55.951  1.00  0.00     0.015 A
HETATM   16  S1  ZOT A3001      18.023   0.093  55.046  1.00  0.00    -0.088 SA
ENDROOT
BRANCH   8  17
HETATM   17  O1  ZOT A3001      14.765  -1.024  58.210  1.00  0.00    -0.343 OA
BRANCH  17  18
HETATM   18  C5  ZOT A3001      14.860  -0.042  59.240  1.00  0.00     0.182 C
BRANCH  18  19
HETATM   19  C6  ZOT A3001      13.602   0.825  59.203  1.00  0.00     0.112 C
BRANCH  19  20
HETATM   20  N1  ZOT A3001      13.079   1.034  60.557  1.00  0.00    -0.306 NA
HETATM   21  C7  ZOT A3001      11.854   1.846  60.484  1.00  0.00     0.104 C
HETATM   22  C8  ZOT A3001      12.796  -0.278  61.163  1.00  0.00     0.104 C
ENDBRANCH  19  20
ENDBRANCH  18  19
ENDBRANCH  17  18
ENDBRANCH   8  17
TORSDOF 4
