REMARK  4 active torsions:
REMARK  status: ('A' for Active; 'I' for Inactive)
REMARK    1  A    between atoms: CAG_2  and  NAD_4
REMARK    2  A    between atoms: NAD_4  and  CAF_6
REMARK    3  A    between atoms: CAF_6  and  CAE_7
REMARK    4  A    between atoms: CAE_7  and  CAH_10
ROOT
HETATM    1  CAI 5FW A 401      15.541 -32.449  -8.959  1.00  0.00     0.023 C
HETATM    2  CAG 5FW A 401      15.623 -31.835 -10.366  1.00  0.00     0.048 C
HETATM    3  CAJ 5FW A 401      15.478 -30.295 -10.304  1.00  0.00     0.023 C
ENDROOT
BRANCH   2   4
HETATM    4  NAD 5FW A 401      16.880 -32.289 -11.009  1.00  0.00    -0.311 NA
HETATM    5  HAD 5FW A 401      17.698 -31.928 -10.518  1.00  0.00     0.122 HD
BRANCH   4   6
HETATM    6  CAF 5FW A 401      16.923 -31.946 -12.447  1.00  0.00     0.117 C
BRANCH   6   7
HETATM    7  CAE 5FW A 401      18.041 -32.714 -13.154  1.00  0.00     0.158 C
HETATM    8  OAA 5FW A 401      19.277 -32.387 -12.525  1.00  0.00    -0.386 OA
HETATM    9  HAA 5FW A 401      19.972 -32.864 -12.964  1.00  0.00     0.210 HD
BRANCH   7  10
HETATM   10  CAH 5FW A 401      18.060 -32.372 -14.652  1.00  0.00    -0.015 A
HETATM   11  CAK 5FW A 401      17.097 -32.945 -15.490  1.00  0.00     0.041 A
HETATM   12  CAM 5FW A 401      17.094 -32.667 -16.858  1.00  0.00     0.103 A
HETATM   13  CAO 5FW A 401      18.050 -31.803 -17.390  1.00  0.00     0.102 A
HETATM   14  OAB 5FW A 401      16.153 -33.240 -17.655  1.00  0.00    -0.357 OA
HETATM   15  OAC 5FW A 401      18.044 -31.530 -18.716  1.00  0.00    -0.357 OA
HETATM   16  CAN 5FW A 401      19.011 -31.226 -16.561  1.00  0.00     0.035 A
HETATM   17  HAB 5FW A 401      16.151 -33.051 -18.586  1.00  0.00     0.217 HD
HETATM   18  HAC 5FW A 401      17.389 -31.923 -19.281  1.00  0.00     0.217 HD
HETATM   19  CAL 5FW A 401      19.017 -31.510 -15.192  1.00  0.00     0.009 A
ENDBRANCH   7  10
ENDBRANCH   6   7
ENDBRANCH   4   6
ENDBRANCH   2   4
TORSDOF 4
