MODEL        1
REMARK THIS MODEL IS IDENTICAL TO THE INPUT LIGAND AND NOT FROM DOCKING
REMARK 921   NORMALIZED FREE ENERGY PREDICTED BY IDOCK:   -5.86 KCAL/MOL
REMARK 922        TOTAL FREE ENERGY PREDICTED BY IDOCK:   -9.25 KCAL/MOL
REMARK 923 INTER-LIGAND FREE ENERGY PREDICTED BY IDOCK:   -8.94 KCAL/MOL
REMARK 924 INTRA-LIGAND FREE ENERGY PREDICTED BY IDOCK:   -0.30 KCAL/MOL
REMARK 927      BINDING AFFINITY PREDICTED BY RF-SCORE:    0.00 PKD
ROOT
HETATM    1  C1  BOG A 411      14.003  46.225  36.122  1.00  0.00    -0.363 C  
HETATM    2  O3  BOG A 411      17.417  46.088  37.719  1.00  0.00    -0.374 OA 
HETATM    3  O5  BOG A 411      13.456  45.250  36.993  1.00  0.00    -0.392 OA 
HETATM    4  C5  BOG A 411      14.303  44.106  37.160  1.00  0.00    -0.321 C  
HETATM    5  H4  BOG A 411      17.211  43.681  38.520  1.00  0.00     0.000 HD 
HETATM    6  C4  BOG A 411      15.579  44.541  37.867  1.00  0.00    -0.354 C  
HETATM    7  H2  BOG A 411      15.397  48.196  35.342  1.00  0.00     0.000 HD 
HETATM    8  C2  BOG A 411      15.362  46.719  36.617  1.00  0.00    -0.397 C  
HETATM    9  H3  BOG A 411      17.864  46.734  37.185  1.00  0.00     0.000 HD 
HETATM   10  O4  BOG A 411      16.415  43.410  38.079  1.00  0.00    -0.423 OA 
HETATM   11  C3  BOG A 411      16.294  45.575  37.012  1.00  0.00    -0.406 C  
HETATM   12  O2  BOG A 411      15.977  47.485  35.588  1.00  0.00    -0.347 OA 
ENDROOT
BRANCH   1  13
HETATM   13  O1  BOG A 411      13.142  47.330  36.099  1.00  0.00    -0.276 OA 
BRANCH  13  14
HETATM   14  C1' BOG A 411      12.136  47.283  35.086  1.00  0.00    -0.386 C  
BRANCH  14  15
HETATM   15  C2' BOG A 411      11.502  48.649  34.986  1.00  0.00    -0.631 C  
BRANCH  15  16
HETATM   16  C3' BOG A 411      10.303  48.714  34.055  1.00  0.00    -0.605 C  
BRANCH  16  17
HETATM   17  C4' BOG A 411       9.062  48.016  34.588  1.00  0.00    -0.509 C  
BRANCH  17  18
HETATM   18  C5' BOG A 411       7.751  48.595  34.078  1.00  0.00    -0.540 C  
BRANCH  18  19
HETATM   19  C6' BOG A 411       6.514  48.015  34.744  1.00  0.00    -0.646 C  
BRANCH  19  20
HETATM   20  C7' BOG A 411       6.304  46.531  34.482  1.00  0.00    -0.656 C  
HETATM   21  C8' BOG A 411       6.785  45.641  35.612  1.00  0.00    -0.690 C  
ENDBRANCH  19  20
ENDBRANCH  18  19
ENDBRANCH  17  18
ENDBRANCH  16  17
ENDBRANCH  15  16
ENDBRANCH  14  15
ENDBRANCH  13  14
ENDBRANCH   1  13
BRANCH   4  22
HETATM   22  C6  BOG A 411      13.516  43.076  37.932  1.00  0.00    -0.314 C  
HETATM   23  H6  BOG A 411      13.188  41.135  37.852  1.00  0.00     0.000 HD 
HETATM   24  O6  BOG A 411      13.684  41.784  37.366  1.00  0.00    -0.314 OA 
ENDBRANCH   4  22
TORSDOF 9
ENDMDL
