REMARK  4 active torsions:
REMARK  status: ('A' for Active; 'I' for Inactive)
REMARK    1  A    between atoms: C6_8  and  C7_10
REMARK    2  A    between atoms: C8_11  and  C9_12
REMARK    3  A    between atoms: C10_14  and  C11_15
REMARK    4  A    between atoms: C12_16  and  C13_17
ROOT
HETATM    1  C1  RET A 401     -43.281 -16.648  34.526  1.00  0.00    -0.010 C
HETATM    2  C2  RET A 401     -43.614 -18.109  34.870  1.00  0.00     0.011 C
HETATM    3  C17 RET A 401     -42.423 -16.092  35.668  1.00  0.00     0.016 C
HETATM    4  C16 RET A 401     -42.418 -16.567  33.257  1.00  0.00     0.016 C
HETATM    5  C3  RET A 401     -44.698 -18.644  33.938  1.00  0.00     0.005 C
HETATM    6  C4  RET A 401     -45.994 -17.858  34.125  1.00  0.00     0.031 C
HETATM    7  C5  RET A 401     -45.791 -16.355  34.092  1.00  0.00    -0.069 C
HETATM    8  C6  RET A 401     -44.582 -15.808  34.368  1.00  0.00    -0.043 C
HETATM    9  C18 RET A 401     -47.015 -15.489  33.931  1.00  0.00     0.039 C
ENDROOT
BRANCH   8  10
HETATM   10  C7  RET A 401     -44.473 -14.323  34.361  1.00  0.00     0.004 C
HETATM   11  C8  RET A 401     -45.119 -13.588  35.277  1.00  0.00     0.003 C
BRANCH  11  12
HETATM   12  C9  RET A 401     -44.929 -12.120  35.411  1.00  0.00    -0.050 C
HETATM   13  C19 RET A 401     -43.788 -11.381  34.724  1.00  0.00     0.044 C
HETATM   14  C10 RET A 401     -45.804 -11.531  36.251  1.00  0.00     0.003 C
BRANCH  14  15
HETATM   15  C11 RET A 401     -45.683 -10.151  36.696  1.00  0.00     0.001 C
HETATM   16  C12 RET A 401     -46.513  -9.780  37.654  1.00  0.00     0.003 C
BRANCH  16  17
HETATM   17  C13 RET A 401     -46.278  -8.522  38.366  1.00  0.00    -0.055 C
HETATM   18  C14 RET A 401     -47.250  -8.183  39.239  1.00  0.00    -0.027 C
HETATM   19  C20 RET A 401     -44.886  -7.911  38.332  1.00  0.00     0.043 C
HETATM   20  C15 RET A 401     -47.164  -6.980  40.081  1.00  0.00     0.035 C
ENDBRANCH  16  17
ENDBRANCH  14  15
ENDBRANCH  11  12
ENDBRANCH   8  10
TORSDOF 4
