MODEL        1
REMARK THIS MODEL IS IDENTICAL TO THE INPUT LIGAND AND NOT FROM DOCKING
REMARK 921   NORMALIZED FREE ENERGY PREDICTED BY IDOCK:   -6.02 KCAL/MOL
REMARK 922        TOTAL FREE ENERGY PREDICTED BY IDOCK:   -8.30 KCAL/MOL
REMARK 923 INTER-LIGAND FREE ENERGY PREDICTED BY IDOCK:   -7.78 KCAL/MOL
REMARK 924 INTRA-LIGAND FREE ENERGY PREDICTED BY IDOCK:   -0.52 KCAL/MOL
REMARK 927      BINDING AFFINITY PREDICTED BY RF-SCORE:    0.00 PKD
ROOT
HETATM    1  C1  ZMA A 401      50.372  22.867  38.115  1.00  0.00    -0.438 A  
HETATM    2  C2  ZMA A 401      49.231  22.640  38.888  1.00  0.00    -0.282 A  
HETATM    3  C3  ZMA A 401      48.337  21.635  38.528  1.00  0.00    -0.323 A  
HETATM    4  O4  ZMA A 401      47.234  21.447  39.313  1.00  0.00    -0.478 OA 
HETATM    5  C5  ZMA A 401      48.566  20.850  37.404  1.00  0.00    -0.141 A  
HETATM    6  C6  ZMA A 401      49.707  21.076  36.631  1.00  0.00    -0.462 A  
HETATM    7  H4  ZMA A 401      46.624  20.761  39.067  1.00  0.00     0.000 HD 
HETATM    8  C7  ZMA A 401      50.620  22.085  36.979  1.00  0.00    -0.383 A  
ENDROOT
BRANCH   8   9
HETATM    9  C8  ZMA A 401      51.845  22.323  36.134  1.00  0.00    -0.334 C  
BRANCH   9  10
HETATM   10  C9  ZMA A 401      51.726  21.611  34.783  1.00  0.00    -0.318 C  
BRANCH  10  11
HETATM   11  N10 ZMA A 401      52.252  22.424  33.700  1.00  0.00    -0.446 NA 
HETATM   12  H10 ZMA A 401      53.264  22.538  33.645  1.00  0.00     0.000 HD 
BRANCH  11  13
HETATM   13  C11 ZMA A 401      51.494  23.047  32.750  1.00  0.00    -0.275 C  
HETATM   14  N13 ZMA A 401      52.186  23.963  31.994  1.00  0.00    -0.274 NA 
HETATM   15  C14 ZMA A 401      51.539  24.642  31.018  1.00  0.00    -0.364 C  
HETATM   16  N16 ZMA A 401      50.128  24.310  30.873  1.00  0.00    -0.085 NA 
HETATM   17  N15 ZMA A 401      52.126  25.574  30.207  1.00  0.00    -0.376 NA 
HETATM   18  N17 ZMA A 401      49.125  24.785  29.992  1.00  0.00    -0.350 NA 
HETATM   19 2H15 ZMA A 401      53.117  25.771  30.347  1.00  0.00     0.000 HD 
HETATM   20 1H15 ZMA A 401      51.638  26.086  29.472  1.00  0.00     0.000 HD 
HETATM   21  C20 ZMA A 401      47.947  24.118  30.299  1.00  0.00    -0.230 A  
HETATM   22  N19 ZMA A 401      48.146  23.256  31.314  1.00  0.00    -0.228 NA 
HETATM   23  N12 ZMA A 401      50.169  22.717  32.633  1.00  0.00    -0.189 NA 
HETATM   24  C18 ZMA A 401      49.501  23.382  31.665  1.00  0.00     0.136 A  
BRANCH  21  25
HETATM   25  C21 ZMA A 401      46.671  24.342  29.586  1.00  0.00    -0.174 A  
HETATM   26  C23 ZMA A 401      44.558  24.147  28.845  1.00  0.00    -0.571 A  
HETATM   27  C22 ZMA A 401      45.527  23.578  29.709  1.00  0.00    -0.484 A  
HETATM   28  C24 ZMA A 401      45.166  25.223  28.241  1.00  0.00    -0.305 A  
HETATM   29  O25 ZMA A 401      46.443  25.348  28.680  1.00  0.00    -0.401 OA 
ENDBRANCH  21  25
ENDBRANCH  11  13
ENDBRANCH  10  11
ENDBRANCH   9  10
ENDBRANCH   8   9
TORSDOF 5
ENDMDL
