REMARK  4 active torsions:
REMARK  status: ('A' for Active; 'I' for Inactive)
REMARK    1  A    between atoms: C03_3  and  C04_14
REMARK    2  A    between atoms: C04_14  and  C05_15
REMARK    3  A    between atoms: C05_15  and  N06_16
REMARK    4  A    between atoms: C09_17  and  C12_22
ROOT
HETATM    1  C01 8NU A2001       5.798   4.520 -12.898  1.00  0.00     0.066 C
HETATM    2  C02 8NU A2001       7.144   4.033 -13.365  1.00  0.00     0.047 A
HETATM    3  C03 8NU A2001       8.262   4.600 -12.909  1.00  0.00     0.033 A
HETATM    4  C22 8NU A2001       9.544   4.089 -13.391  1.00  0.00     0.292 A
HETATM    5  C27 8NU A2001       9.633   0.613 -15.771  1.00  0.00     0.010 C
HETATM    6  C28 8NU A2001       8.257   1.284 -15.641  1.00  0.00     0.085 C
HETATM    7  N24 8NU A2001       9.552   3.033 -14.306  1.00  0.00     0.202 NA
HETATM    8  O23 8NU A2001      10.714   4.653 -12.983  1.00  0.00    -0.338 OA
HETATM    9  C29 8NU A2001       8.311   2.465 -14.703  1.00  0.00     0.252 A
HETATM   10  C25 8NU A2001      10.828   2.550 -14.812  1.00  0.00     0.284 C
HETATM   11  H23 8NU A2001      11.547   4.321 -13.296  1.00  0.00     0.219 HD
HETATM   12  C26 8NU A2001      10.659   1.689 -16.072  1.00  0.00     0.033 C
HETATM   13  N30 8NU A2001       7.209   2.946 -14.270  1.00  0.00    -0.230 NA
ENDROOT
BRANCH   3  14
HETATM   14  C04 8NU A2001       8.206   5.746 -11.897  1.00  0.00     0.056 C
BRANCH  14  15
HETATM   15  C05 8NU A2001       8.798   5.236 -10.556  1.00  0.00     0.089 C
BRANCH  15  16
HETATM   16  N06 8NU A2001       8.882   6.272  -9.486  1.00  0.00    -0.302 NA
HETATM   17  C09 8NU A2001      10.598   7.582  -7.553  1.00  0.00     0.043 C
HETATM   18  C11 8NU A2001       9.363   5.565  -8.280  1.00  0.00     0.085 C
HETATM   19  C07 8NU A2001       9.857   7.323  -9.903  1.00  0.00     0.085 C
HETATM   20  C10 8NU A2001       9.569   6.528  -7.120  1.00  0.00     0.025 C
HETATM   21  C08 8NU A2001      10.085   8.347  -8.777  1.00  0.00     0.025 C
BRANCH  17  22
HETATM   22  C12 8NU A2001      10.978   8.513  -6.434  1.00  0.00     0.082 A
HETATM   23  C16 8NU A2001      11.346   8.184  -5.148  1.00  0.00     0.031 A
HETATM   24  C17 8NU A2001      11.480   6.976  -4.482  1.00  0.00     0.015 A
HETATM   25  C18 8NU A2001      11.893   7.042  -3.152  1.00  0.00     0.039 A
HETATM   26  C19 8NU A2001      12.158   8.271  -2.538  1.00  0.00     0.126 A
HETATM   27  F20 8NU A2001      12.555   8.290  -1.257  1.00  0.00    -0.205 F
HETATM   28  C21 8NU A2001      12.017   9.471  -3.239  1.00  0.00     0.074 A
HETATM   29  C15 8NU A2001      11.604   9.387  -4.561  1.00  0.00     0.120 A
HETATM   30  O14 8NU A2001      11.404  10.328  -5.431  1.00  0.00    -0.212 OA
HETATM   31  N13 8NU A2001      11.047   9.842  -6.521  1.00  0.00    -0.131 NA
ENDBRANCH  17  22
ENDBRANCH  15  16
ENDBRANCH  14  15
ENDBRANCH   3  14
TORSDOF 4
