MODEL        1
REMARK THIS MODEL IS IDENTICAL TO THE INPUT LIGAND AND NOT FROM DOCKING
REMARK 921   NORMALIZED FREE ENERGY PREDICTED BY IDOCK:   -9.89 KCAL/MOL
REMARK 922        TOTAL FREE ENERGY PREDICTED BY IDOCK:  -14.40 KCAL/MOL
REMARK 923 INTER-LIGAND FREE ENERGY PREDICTED BY IDOCK:  -13.93 KCAL/MOL
REMARK 924 INTRA-LIGAND FREE ENERGY PREDICTED BY IDOCK:   -0.46 KCAL/MOL
REMARK 927      BINDING AFFINITY PREDICTED BY RF-SCORE:    0.00 PKD
ROOT
HETATM    1  O1  WHJ A 601     -19.709 -13.584  29.988  1.00  0.00    -0.784 OA 
HETATM    2  C9  WHJ A 601     -20.354 -13.384  28.940  1.00  0.00    -0.345 C  
HETATM    3  C8  WHJ A 601     -21.688 -13.791  28.864  1.00  0.00    -0.656 C  
HETATM    4  C1  WHJ A 601     -22.437 -13.570  27.713  1.00  0.00    -0.522 C  
HETATM    5  C2  WHJ A 601     -21.831 -12.938  26.631  1.00  0.00    -0.684 A  
HETATM    6  C3  WHJ A 601     -22.521 -12.650  25.338  1.00  0.00    -0.588 A  
HETATM    7  H1  WHJ A 601     -18.776 -12.486  27.995  1.00  0.00     0.000 HD 
HETATM    8  C4  WHJ A 601     -21.801 -12.011  24.319  1.00  0.00    -0.728 A  
HETATM    9  N1  WHJ A 601     -19.751 -12.773  27.908  1.00  0.00    -0.254 N  
HETATM   10  C5  WHJ A 601     -20.461 -11.631  24.454  1.00  0.00    -0.826 A  
HETATM   11  H2  WHJ A 601     -18.017 -11.059  25.006  1.00  0.00     0.000 HD 
HETATM   12  C6  WHJ A 601     -19.745 -11.870  25.623  1.00  0.00    -0.486 A  
HETATM   13  C7  WHJ A 601     -20.410 -12.535  26.766  1.00  0.00    -0.436 A  
HETATM   14  O2  WHJ A 601     -18.444 -11.486  25.740  1.00  0.00    -0.786 OA 
ENDROOT
BRANCH   6  15
HETATM   15  C10 WHJ A 601     -23.939 -13.028  25.115  1.00  0.00    -0.521 C  
HETATM   16  H4  WHJ A 601     -24.381 -11.370  24.144  1.00  0.00     0.000 HD 
HETATM   17  O4  WHJ A 601     -24.432 -12.305  23.985  1.00  0.00    -0.194 OA 
BRANCH  15  18
HETATM   18  C11 WHJ A 601     -24.021 -14.535  24.859  1.00  0.00    -0.363 C  
BRANCH  18  19
HETATM   19  N2  WHJ A 601     -25.391 -15.031  24.735  1.00  0.00    -0.751 NA 
HETATM   20  H2  WHJ A 601     -26.168 -14.373  24.675  1.00  0.00     0.000 HD 
BRANCH  19  21
HETATM   21  C12 WHJ A 601     -25.649 -16.474  24.697  1.00  0.00    -0.304 C  
HETATM   22  C13 WHJ A 601     -24.625 -17.253  23.879  1.00  0.00    -0.838 C  
BRANCH  21  23
HETATM   23  C14 WHJ A 601     -27.064 -16.808  24.212  1.00  0.00    -0.405 C  
BRANCH  23  24
HETATM   24  C15 WHJ A 601     -27.993 -16.343  25.293  1.00  0.00    -0.516 A  
HETATM   25  C20 WHJ A 601     -29.170 -15.645  25.019  1.00  0.00    -0.526 A  
HETATM   26  C19 WHJ A 601     -29.956 -15.225  26.099  1.00  0.00    -0.448 A  
HETATM   27  C18 WHJ A 601     -29.552 -15.505  27.420  1.00  0.00    -0.353 A  
HETATM   28  C17 WHJ A 601     -28.378 -16.201  27.678  1.00  0.00    -0.347 A  
HETATM   29  C16 WHJ A 601     -27.604 -16.615  26.606  1.00  0.00    -0.427 A  
BRANCH  27  30
HETATM   30  O3  WHJ A 601     -30.283 -15.105  28.502  1.00  0.00    -0.374 OA 
HETATM   31  C21 WHJ A 601     -29.656 -14.265  29.474  1.00  0.00    -0.469 C  
ENDBRANCH  27  30
ENDBRANCH  23  24
ENDBRANCH  21  23
ENDBRANCH  19  21
ENDBRANCH  18  19
ENDBRANCH  15  18
ENDBRANCH   6  15
TORSDOF 7
ENDMDL
