REMARK  3 active torsions:
REMARK  status: ('A' for Active; 'I' for Inactive)
REMARK    1  A    between atoms: C1_1  and  C4_8
REMARK    2  A    between atoms: C9_9  and  C10_10
REMARK    3  A    between atoms: C18_21  and  O3_23
ROOT
HETATM    1  C1  2U8 A4005     -24.942  -6.788  40.839  1.00  0.00     0.025 A
HETATM    2  C3  2U8 A4005     -25.150  -6.538  39.467  1.00  0.00     0.020 A
HETATM    3  C5  2U8 A4005     -25.556  -9.119  40.514  1.00  0.00     0.001 A
HETATM    4  C7  2U8 A4005     -25.569  -7.587  38.612  1.00  0.00    -0.049 A
HETATM    5  C2  2U8 A4005     -25.145  -8.081  41.352  1.00  0.00     0.017 A
HETATM    6  C6  2U8 A4005     -25.770  -8.881  39.145  1.00  0.00     0.003 A
HETATM    7  C8  2U8 A4005     -25.793  -7.315  37.147  1.00  0.00     0.044 C
ENDROOT
BRANCH   1   8
HETATM    8  C4  2U8 A4005     -24.502  -5.688  41.696  1.00  0.00    -0.063 C
HETATM    9  C9  2U8 A4005     -24.194  -4.764  42.440  1.00  0.00    -0.062 C
BRANCH   9  10
HETATM   10  C10 2U8 A4005     -23.827  -3.601  43.276  1.00  0.00     0.131 C
HETATM   11  O1  2U8 A4005     -24.983  -2.980  43.763  1.00  0.00    -0.376 OA
HETATM   12  C11 2U8 A4005     -23.077  -2.506  42.466  1.00  0.00     0.048 C
HETATM   13  C12 2U8 A4005     -21.692  -2.942  41.942  1.00  0.00     0.005 C
HETATM   14  H1  2U8 A4005     -24.747  -2.233  44.300  1.00  0.00     0.211 HD
HETATM   15  C13 2U8 A4005     -20.769  -3.554  43.001  1.00  0.00     0.020 C
HETATM   16  C14 2U8 A4005     -21.402  -4.344  44.173  1.00  0.00     0.073 C
HETATM   17  C15 2U8 A4005     -22.923  -4.161  44.413  1.00  0.00     0.052 C
HETATM   18  C16 2U8 A4005     -23.006  -3.423  45.759  1.00  0.00     0.025 C
HETATM   19  C17 2U8 A4005     -21.670  -3.680  46.464  1.00  0.00     0.096 C
HETATM   20  N1  2U8 A4005     -20.796  -4.351  45.504  1.00  0.00    -0.216 N
HETATM   21  C18 2U8 A4005     -19.561  -4.900  45.877  1.00  0.00     0.341 C
HETATM   22  O2  2U8 A4005     -18.766  -5.390  45.075  1.00  0.00    -0.245 OA
BRANCH  21  23
HETATM   23  O3  2U8 A4005     -19.514  -5.179  47.189  1.00  0.00    -0.306 OA
HETATM   24  C19 2U8 A4005     -18.397  -5.879  47.715  1.00  0.00     0.206 C
ENDBRANCH  21  23
ENDBRANCH   9  10
ENDBRANCH   1   8
TORSDOF 3
