MODEL        1
REMARK THIS MODEL IS IDENTICAL TO THE INPUT LIGAND AND NOT FROM DOCKING
REMARK 921   NORMALIZED FREE ENERGY PREDICTED BY IDOCK:   -7.90 KCAL/MOL
REMARK 922        TOTAL FREE ENERGY PREDICTED BY IDOCK:  -10.54 KCAL/MOL
REMARK 923 INTER-LIGAND FREE ENERGY PREDICTED BY IDOCK:  -10.22 KCAL/MOL
REMARK 924 INTRA-LIGAND FREE ENERGY PREDICTED BY IDOCK:   -0.33 KCAL/MOL
REMARK 927      BINDING AFFINITY PREDICTED BY RF-SCORE:    0.00 PKD
ROOT
HETATM    1  C1  ZMA A 507       1.642 103.010  55.799  1.00  0.00    -0.363 A  
HETATM    2  C7  ZMA A 507       0.682 102.042  55.411  1.00  0.00    -0.350 A  
HETATM    3  O4  ZMA A 507      -0.174 106.129  54.998  1.00  0.00    -0.195 OA 
HETATM    4  C6  ZMA A 507      -0.515 102.424  54.858  1.00  0.00    -0.538 A  
HETATM    5  C2  ZMA A 507       1.365 104.364  55.672  1.00  0.00    -0.298 A  
HETATM    6  C5  ZMA A 507      -0.791 103.777  54.764  1.00  0.00    -0.423 A  
HETATM    7  H4  ZMA A 507      -1.013 106.392  54.638  1.00  0.00     0.000 HD 
HETATM    8  C3  ZMA A 507       0.143 104.747  55.148  1.00  0.00    -0.236 A  
ENDROOT
BRANCH   2   9
HETATM    9  C8  ZMA A 507       0.990 100.580  55.510  1.00  0.00    -0.489 C  
BRANCH   9  10
HETATM   10  C9  ZMA A 507       1.910 100.380  54.316  1.00  0.00    -0.320 C  
BRANCH  10  11
HETATM   11  N10 ZMA A 507       2.313  99.016  54.202  1.00  0.00    -0.264 NA 
HETATM   12  H10 ZMA A 507       3.195  98.696  54.603  1.00  0.00     0.000 HD 
BRANCH  11  13
HETATM   13  C11 ZMA A 507       1.457  98.116  53.518  1.00  0.00    -0.158 C  
HETATM   14  N12 ZMA A 507       1.868  96.886  53.350  1.00  0.00    -0.441 NA 
HETATM   15  C18 ZMA A 507       1.048  96.069  52.720  1.00  0.00    -0.481 A  
HETATM   16  N16 ZMA A 507      -0.118  96.501  52.298  1.00  0.00    -0.306 NA 
HETATM   17  N17 ZMA A 507      -0.781  95.471  51.741  1.00  0.00    -0.676 NA 
HETATM   18  C14 ZMA A 507      -0.520  97.759  52.498  1.00  0.00    -0.329 C  
HETATM   19  C20 ZMA A 507       0.048  94.473  51.809  1.00  0.00    -0.434 A  
HETATM   20  N13 ZMA A 507       0.283  98.617  53.117  1.00  0.00    -0.435 NA 
HETATM   21  N15 ZMA A 507      -1.731  98.289  52.064  1.00  0.00    -0.763 NA 
HETATM   22 2H15 ZMA A 507      -2.465  97.684  52.433  1.00  0.00     0.000 HD 
HETATM   23 1H15 ZMA A 507      -2.038  99.250  52.217  1.00  0.00     0.000 HD 
HETATM   24  N19 ZMA A 507       1.205  94.812  52.413  1.00  0.00    -0.426 NA 
BRANCH  19  25
HETATM   25  C21 ZMA A 507      -0.269  93.232  51.325  1.00  0.00    -0.283 A  
HETATM   26  C22 ZMA A 507       0.458  92.096  51.145  1.00  0.00    -0.629 A  
HETATM   27  C23 ZMA A 507      -0.462  91.182  50.677  1.00  0.00    -0.641 A  
HETATM   28  C24 ZMA A 507      -1.690  91.776  50.602  1.00  0.00    -0.194 A  
HETATM   29  O25 ZMA A 507      -1.573  93.024  51.024  1.00  0.00    -0.545 OA 
ENDBRANCH  19  25
ENDBRANCH  11  13
ENDBRANCH  10  11
ENDBRANCH   9  10
ENDBRANCH   2   9
TORSDOF 5
ENDMDL
