REMARK  2 active torsions:
REMARK  status: ('A' for Active; 'I' for Inactive)
REMARK    1  A    between atoms: C5'_2  and  C4'_4
REMARK    2  A    between atoms: C1'_6  and  N9_13
ROOT
HETATM    1  O5' ADN A 400     -29.233  10.570 -26.022  1.00  0.00    -0.392 OA
HETATM    2  C5' ADN A 400     -29.464  11.813 -25.353  1.00  0.00     0.190 C
HETATM    3  H5' ADN A 400     -29.083  10.719 -26.948  1.00  0.00     0.210 HD
ENDROOT
BRANCH   2   4
HETATM    4  C4' ADN A 400     -29.704  11.574 -23.867  1.00  0.00     0.177 C
HETATM    5  O4' ADN A 400     -30.665  10.527 -23.691  1.00  0.00    -0.350 OA
HETATM    6  C1' ADN A 400     -30.312   9.700 -22.584  1.00  0.00     0.231 C
HETATM    7  H3' ADN A 400     -26.954  11.981 -22.038  1.00  0.00     0.210 HD
HETATM    8  C2' ADN A 400     -29.050  10.298 -21.985  1.00  0.00     0.190 C
HETATM    9  O3' ADN A 400     -27.725  12.245 -22.526  1.00  0.00    -0.386 OA
HETATM   10  O2' ADN A 400     -29.376  11.115 -20.857  1.00  0.00    -0.385 OA
HETATM   11  C3' ADN A 400     -28.467  11.151 -23.084  1.00  0.00     0.178 C
HETATM   12  H2' ADN A 400     -29.743  10.578 -20.165  1.00  0.00     0.210 HD
BRANCH   6  13
HETATM   13  N9  ADN A 400     -30.022   8.307 -23.009  1.00  0.00    -0.187 NA
HETATM   14  C5  ADN A 400     -29.684   6.087 -23.011  1.00  0.00     0.138 A
HETATM   15  C6  ADN A 400     -29.657   4.773 -22.334  1.00  0.00     0.134 A
HETATM   16  N7  ADN A 400     -29.463   6.542 -24.256  1.00  0.00    -0.237 NA
HETATM   17  C4  ADN A 400     -30.053   7.254 -22.194  1.00  0.00     0.147 A
HETATM   18  C8  ADN A 400     -29.663   7.886 -24.242  1.00  0.00     0.177 A
HETATM   19  N1  ADN A 400     -29.968   4.745 -21.019  1.00  0.00    -0.222 NA
HETATM   20  N6  ADN A 400     -29.334   3.642 -23.008  1.00  0.00    -0.285 NA
HETATM   21  H62 ADN A 400     -29.105   3.699 -24.001  1.00  0.00     0.125 HD
HETATM   22  C2  ADN A 400     -30.295   5.854 -20.327  1.00  0.00     0.224 A
HETATM   23  H61 ADN A 400     -29.315   2.736 -22.541  1.00  0.00     0.125 HD
HETATM   24  N3  ADN A 400     -30.341   7.079 -20.884  1.00  0.00    -0.221 NA
ENDBRANCH   6  13
ENDBRANCH   2   4
TORSDOF 2
