MODEL        1
REMARK THIS MODEL IS IDENTICAL TO THE INPUT LIGAND AND NOT FROM DOCKING
REMARK 921   NORMALIZED FREE ENERGY PREDICTED BY IDOCK:  -13.88 KCAL/MOL
REMARK 922        TOTAL FREE ENERGY PREDICTED BY IDOCK:  -23.19 KCAL/MOL
REMARK 923 INTER-LIGAND FREE ENERGY PREDICTED BY IDOCK:  -21.19 KCAL/MOL
REMARK 924 INTRA-LIGAND FREE ENERGY PREDICTED BY IDOCK:   -2.00 KCAL/MOL
REMARK 927      BINDING AFFINITY PREDICTED BY RF-SCORE:    0.00 PKD
ROOT
HETATM    1  N1  8ES B1201       9.214   6.699 -18.180  1.00  0.00    -0.284 NA 
HETATM    2  C2  8ES B1201       8.008   6.055 -17.750  1.00  0.00    -0.428 A  
HETATM    3  C21 8ES B1201       5.861  10.239 -16.761  1.00  0.00    -0.646 A  
HETATM    4  O   8ES B1201      10.420   8.784 -18.586  1.00  0.00    -0.244 OA 
HETATM    5  C5  8ES B1201       9.271   8.088 -18.170  1.00  0.00    -0.310 A  
HETATM    6  N   8ES B1201       6.919   6.743 -17.300  1.00  0.00    -0.235 NA 
HETATM    7  C1  8ES B1201       6.949   8.149 -17.264  1.00  0.00    -0.271 A  
HETATM    8  H   8ES B1201      10.459   9.733 -18.579  1.00  0.00     0.000 HD 
HETATM    9  C   8ES B1201       8.097   8.870 -17.676  1.00  0.00    -0.486 A  
HETATM   10  C20 8ES B1201       5.832   8.831 -16.807  1.00  0.00    -0.914 A  
HETATM   11  C23 8ES B1201       8.109  10.247 -17.650  1.00  0.00    -0.369 A  
HETATM   12  C22 8ES B1201       6.996  10.970 -17.195  1.00  0.00    -0.230 A  
ENDROOT
BRANCH   1  13
HETATM   13  C6  8ES B1201      10.376   5.920 -18.609  1.00  0.00    -0.358 C  
BRANCH  13  14
HETATM   14  C7  8ES B1201      11.527   6.062 -17.608  1.00  0.00    -0.246 A  
HETATM   15  C10 8ES B1201      13.736   6.333 -15.808  1.00  0.00    -0.439 A  
HETATM   16  C18 8ES B1201      12.302   6.270 -15.256  1.00  0.00    -0.422 A  
HETATM   17  C9  8ES B1201      13.939   6.261 -17.114  1.00  0.00    -0.497 A  
HETATM   18  C19 8ES B1201      11.279   6.149 -16.090  1.00  0.00    -0.303 A  
HETATM   19  C8  8ES B1201      12.760   6.109 -18.076  1.00  0.00    -0.427 A  
BRANCH  15  20
HETATM   20  C11 8ES B1201      14.945   6.508 -14.879  1.00  0.00    -0.552 A  
HETATM   21  C14 8ES B1201      16.257   7.813 -13.312  1.00  0.00    -0.410 A  
HETATM   22  C16 8ES B1201      17.033   5.638 -14.010  1.00  0.00    -0.578 A  
HETATM   23  C12 8ES B1201      15.134   7.682 -14.130  1.00  0.00    -0.516 A  
HETATM   24  C17 8ES B1201      15.913   5.500 -14.827  1.00  0.00    -0.577 A  
HETATM   25  C15 8ES B1201      17.206   6.794 -13.253  1.00  0.00    -0.493 A  
BRANCH  23  26
HETATM   26  C13 8ES B1201      14.122   8.832 -14.154  1.00  0.00    -0.334 A  
HETATM   27  N4  8ES B1201      12.719  10.465 -14.939  1.00  0.00    -0.464 NA 
HETATM   28  H5  8ES B1201      13.875   9.283 -16.263  1.00  0.00     0.000 HD 
HETATM   29  N5  8ES B1201      13.611   9.498 -15.301  1.00  0.00    -0.317 NA 
HETATM   30  N3  8ES B1201      12.670  10.401 -13.572  1.00  0.00    -0.728 NA 
HETATM   31  N2  8ES B1201      13.533   9.398 -13.083  1.00  0.00    -0.347 NA 
ENDBRANCH  23  26
ENDBRANCH  15  20
ENDBRANCH  13  14
ENDBRANCH   1  13
BRANCH   2  32
HETATM   32  C3  8ES B1201       7.877   4.525 -17.734  1.00  0.00    -0.829 C  
HETATM   33  C4  8ES B1201       7.262   4.017 -19.037  1.00  0.00    -0.927 C  
ENDBRANCH   2  32
BRANCH  12  34
HETATM   34  N6  8ES B1201       7.026  12.424 -17.118  1.00  0.00    -0.238 N  
HETATM   35  O1  8ES B1201       7.373  14.297 -15.829  1.00  0.00    -0.301 OA 
HETATM   36  C24 8ES B1201       7.360  13.110 -15.864  1.00  0.00    -0.270 C  
BRANCH  34  37
HETATM   37  C29 8ES B1201       6.729  13.193 -18.325  1.00  0.00    -0.296 C  
BRANCH  37  38
HETATM   38  C30 8ES B1201       5.252  13.049 -18.697  1.00  0.00    -0.426 A  
HETATM   39  C35 8ES B1201       4.166  13.472 -17.698  1.00  0.00    -0.640 A  
HETATM   40  C31 8ES B1201       4.914  12.548 -19.876  1.00  0.00    -0.517 A  
HETATM   41  C32 8ES B1201       3.432  12.402 -20.252  1.00  0.00    -0.670 A  
HETATM   42  C33 8ES B1201       2.495  12.767 -19.390  1.00  0.00    -0.874 A  
HETATM   43  C34 8ES B1201       2.889  13.345 -18.023  1.00  0.00    -0.745 A  
ENDBRANCH  37  38
ENDBRANCH  34  37
BRANCH  36  44
HETATM   44  C25 8ES B1201       7.684  12.373 -14.555  1.00  0.00    -0.326 C  
HETATM   45  C28 8ES B1201       7.941  11.695 -12.093  1.00  0.00    -0.524 C  
HETATM   46  C27 8ES B1201       8.554  10.731 -12.956  1.00  0.00    -0.622 C  
HETATM   47  S   8ES B1201       7.262  12.981 -13.007  1.00  0.00    -0.071 SA 
HETATM   48  C26 8ES B1201       8.414  11.143 -14.412  1.00  0.00    -0.488 C  
ENDBRANCH  36  44
ENDBRANCH  12  34
TORSDOF 9
ENDMDL
