REMARK  5 active torsions:
REMARK  status: ('A' for Active; 'I' for Inactive)
REMARK    1  A    between atoms: C10_3  and  C9_4
REMARK    2  A    between atoms: C10_3  and  C11_18
REMARK    3  A    between atoms: C9_4  and  O1_5
REMARK    4  A    between atoms: C11_18  and  N2_19
REMARK    5  A    between atoms: O1_5  and  C4_6
ROOT
HETATM    1  O2  P32 A 400      32.560  38.239  21.414  1.00  0.00    -0.388 OA
HETATM    2  H2  P32 A 400      32.360  38.359  20.493  1.00  0.00     0.210 HD
HETATM    3  C10 P32 A 400      33.597  37.268  21.610  1.00  0.00     0.154 C
ENDROOT
BRANCH   3   4
HETATM    4  C9  P32 A 400      33.120  35.957  21.040  1.00  0.00     0.200 C
BRANCH   4   5
HETATM    5  O1  P32 A 400      33.095  35.015  22.073  1.00  0.00    -0.341 OA
BRANCH   5   6
HETATM    6  C4  P32 A 400      32.882  33.704  21.798  1.00  0.00     0.085 A
HETATM    7  C5  P32 A 400      31.688  33.313  21.257  1.00  0.00     0.033 A
HETATM    8  C6  P32 A 400      31.462  31.967  20.976  1.00  0.00     0.004 A
HETATM    9  C7  P32 A 400      32.397  30.952  21.232  1.00  0.00     0.020 A
HETATM   10  C8  P32 A 400      33.643  31.226  21.782  1.00  0.00     0.030 A
HETATM   11  C3  P32 A 400      33.920  32.656  22.091  1.00  0.00     0.025 A
HETATM   12  C2  P32 A 400      35.252  32.846  22.667  1.00  0.00     0.043 A
HETATM   13  C1  P32 A 400      35.617  31.394  22.563  1.00  0.00     0.099 A
HETATM   14  N1  P32 A 400      34.746  30.476  22.131  1.00  0.00    -0.249 NA
HETATM   15  C16 P32 A 400      36.776  31.052  23.111  1.00  0.00     0.111 C
HETATM   16  N3  P32 A 400      37.794  30.762  23.611  1.00  0.00    -0.190 NA
HETATM   17  H1  P32 A 400      34.868  29.465  22.074  1.00  0.00     0.134 HD
ENDBRANCH   5   6
ENDBRANCH   4   5
ENDBRANCH   3   4
BRANCH   3  18
HETATM   18  C11 P32 A 400      33.918  37.075  23.087  1.00  0.00     0.115 C
BRANCH  18  19
HETATM   19  N2  P32 A 400      34.168  38.366  23.685  1.00  0.00    -0.309 NA
HETATM   20  H2  P32 A 400      34.118  39.189  23.084  1.00  0.00     0.123 HD
HETATM   21  C14 P32 A 400      35.084  39.970  25.217  1.00  0.00     0.027 C
HETATM   22  C12 P32 A 400      34.488  38.567  25.097  1.00  0.00     0.011 C
HETATM   23  C13 P32 A 400      33.285  38.440  26.028  1.00  0.00     0.027 C
HETATM   24  C15 P32 A 400      35.500  37.570  25.566  1.00  0.00     0.027 C
ENDBRANCH  18  19
ENDBRANCH   3  18
TORSDOF 5
