MODEL        1
REMARK THIS MODEL IS IDENTICAL TO THE INPUT LIGAND AND NOT FROM DOCKING
REMARK 921   NORMALIZED FREE ENERGY PREDICTED BY IDOCK:   -6.34 KCAL/MOL
REMARK 922        TOTAL FREE ENERGY PREDICTED BY IDOCK:   -8.39 KCAL/MOL
REMARK 923 INTER-LIGAND FREE ENERGY PREDICTED BY IDOCK:   -8.20 KCAL/MOL
REMARK 924 INTRA-LIGAND FREE ENERGY PREDICTED BY IDOCK:   -0.19 KCAL/MOL
REMARK 927      BINDING AFFINITY PREDICTED BY RF-SCORE:    0.00 PKD
ROOT
HETATM    1  C01 IXO A 501      -4.841 -13.587  -4.412  1.00  0.00    -0.547 C  
HETATM    2  N02 IXO A 501      -4.669 -12.148  -4.394  1.00  0.00    -0.377 N  
HETATM    3  C04 IXO A 501      -3.387 -11.776  -3.686  1.00  0.00    -0.417 C  
HETATM    4  C03 IXO A 501      -4.620 -11.662  -5.733  1.00  0.00    -0.407 C  
ENDROOT
BRANCH   2   5
HETATM    5  C05 IXO A 501      -5.797 -11.535  -3.715  1.00  0.00    -0.591 C  
BRANCH   5   6
HETATM    6  C06 IXO A 501      -5.671 -10.078  -3.347  1.00  0.00    -0.691 C  
HETATM    7  C07 IXO A 501      -5.654  -8.833  -3.014  1.00  0.00    -0.628 C  
BRANCH   7   8
HETATM    8  C08 IXO A 501      -5.604  -7.333  -2.761  1.00  0.00    -0.570 C  
BRANCH   8   9
HETATM    9  O09 IXO A 501      -4.951  -6.884  -1.584  1.00  0.00    -0.689 OA 
BRANCH   9  10
HETATM   10  C10 IXO A 501      -3.694  -7.325  -1.246  1.00  0.00    -0.488 C  
HETATM   11  N11 IXO A 501      -2.720  -7.785  -2.162  1.00  0.00    -0.551 NA 
HETATM   12  O12 IXO A 501      -1.591  -8.131  -1.476  1.00  0.00    -0.685 OA 
HETATM   13  C13 IXO A 501      -1.713  -7.594  -0.160  1.00  0.00    -0.640 C  
HETATM   14  C14 IXO A 501      -3.134  -7.384   0.051  1.00  0.00    -0.916 C  
ENDBRANCH   9  10
ENDBRANCH   8   9
ENDBRANCH   7   8
ENDBRANCH   5   6
ENDBRANCH   2   5
TORSDOF 5
ENDMDL
