REMARK  4 active torsions:
REMARK  status: ('A' for Active; 'I' for Inactive)
REMARK    1  A    between atoms: C6_8  and  C7_10
REMARK    2  A    between atoms: C8_11  and  C9_12
REMARK    3  A    between atoms: C10_14  and  C11_15
REMARK    4  A    between atoms: C12_16  and  C13_17
ROOT
HETATM    1  C1  RET A1296      34.496   6.641  19.583  1.00  0.00    -0.010 C
HETATM    2  C2  RET A1296      33.103   6.140  19.066  1.00  0.00     0.011 C
HETATM    3  C17 RET A1296      35.461   5.407  19.477  1.00  0.00     0.016 C
HETATM    4  C16 RET A1296      34.254   6.916  21.106  1.00  0.00     0.016 C
HETATM    5  C3  RET A1296      32.251   7.195  18.393  1.00  0.00     0.005 C
HETATM    6  C4  RET A1296      32.973   7.944  17.254  1.00  0.00     0.031 C
HETATM    7  C5  RET A1296      34.344   8.504  17.666  1.00  0.00    -0.069 C
HETATM    8  C6  RET A1296      35.061   7.962  18.806  1.00  0.00    -0.043 C
HETATM    9  C18 RET A1296      34.698   9.667  16.741  1.00  0.00     0.039 C
ENDROOT
BRANCH   8  10
HETATM   10  C7  RET A1296      36.341   8.543  19.265  1.00  0.00     0.004 C
HETATM   11  C8  RET A1296      37.148   9.510  18.800  1.00  0.00     0.003 C
BRANCH  11  12
HETATM   12  C9  RET A1296      38.424   9.967  19.333  1.00  0.00    -0.050 C
HETATM   13  C19 RET A1296      38.879   9.448  20.712  1.00  0.00     0.044 C
HETATM   14  C10 RET A1296      39.156  10.721  18.468  1.00  0.00     0.003 C
BRANCH  14  15
HETATM   15  C11 RET A1296      40.560  10.908  18.680  1.00  0.00     0.001 C
HETATM   16  C12 RET A1296      41.327  11.452  17.721  1.00  0.00     0.003 C
BRANCH  16  17
HETATM   17  C13 RET A1296      42.767  11.238  17.671  1.00  0.00    -0.051 C
HETATM   18  C14 RET A1296      43.402  12.034  16.822  1.00  0.00    -0.005 C
HETATM   19  C20 RET A1296      43.411  10.149  18.486  1.00  0.00     0.044 C
HETATM   20  C15 RET A1296      44.766  12.038  16.488  1.00  0.00     0.009 C
ENDBRANCH  16  17
ENDBRANCH  14  15
ENDBRANCH  11  12
ENDBRANCH   8  10
TORSDOF 4
