MODEL        1
REMARK THIS MODEL IS IDENTICAL TO THE INPUT LIGAND AND NOT FROM DOCKING
REMARK 921   NORMALIZED FREE ENERGY PREDICTED BY IDOCK:  -11.18 KCAL/MOL
REMARK 922        TOTAL FREE ENERGY PREDICTED BY IDOCK:  -14.32 KCAL/MOL
REMARK 923 INTER-LIGAND FREE ENERGY PREDICTED BY IDOCK:  -13.79 KCAL/MOL
REMARK 924 INTRA-LIGAND FREE ENERGY PREDICTED BY IDOCK:   -0.52 KCAL/MOL
REMARK 927      BINDING AFFINITY PREDICTED BY RF-SCORE:    0.00 PKD
ROOT
HETATM    1  C4  F7N A 413      64.291   1.189  50.492  1.00  0.00    -0.405 C  
HETATM    2  C5  F7N A 413      63.131   0.917  51.416  1.00  0.00    -0.350 C  
HETATM    3  C6  F7N A 413      62.682  -0.531  51.274  1.00  0.00    -0.187 C  
HETATM    4  O3  F7N A 413      65.379   0.279  50.729  1.00  0.00    -0.387 OA 
HETATM    5  C1  F7N A 413      63.872  -1.463  51.464  1.00  0.00    -0.414 C  
HETATM    6  C2  F7N A 413      64.983  -1.087  50.510  1.00  0.00    -0.634 C  
ENDROOT
BRANCH   3   7
HETATM    7  N33 F7N A 413      61.635  -0.814  52.315  1.00  0.00    -0.518 NA 
HETATM    8  H33 F7N A 413      61.340  -0.094  52.975  1.00  0.00     0.000 HD 
BRANCH   7   9
HETATM    9  C23 F7N A 413      61.037  -2.192  52.351  1.00  0.00    -0.305 C  
HETATM   10  C19 F7N A 413      60.441  -2.619  51.017  1.00  0.00    -0.640 C  
HETATM   11  C22 F7N A 413      59.875  -2.285  53.322  1.00  0.00    -0.316 C  
HETATM   12  C26 F7N A 413      57.844  -5.717  53.393  1.00  0.00    -0.567 C  
HETATM   13  C21 F7N A 413      58.984  -3.440  52.813  1.00  0.00    -0.333 C  
HETATM   14  C20 F7N A 413      59.770  -3.890  51.558  1.00  0.00    -0.620 C  
HETATM   15  C27 F7N A 413      60.114  -5.302  54.349  1.00  0.00    -0.425 C  
HETATM   16  C25 F7N A 413      58.809  -4.633  53.885  1.00  0.00    -0.302 C  
BRANCH  13  17
HETATM   17  C24 F7N A 413      57.585  -2.919  52.421  1.00  0.00    -0.359 C  
HETATM   18  N9  F7N A 413      56.787  -2.251  53.288  1.00  0.00    -0.282 N  
HETATM   19  O28 F7N A 413      57.213  -3.080  51.272  1.00  0.00    -0.594 OA 
HETATM   20  C12 F7N A 413      55.498  -1.731  52.804  1.00  0.00    -0.402 C  
HETATM   21  C13 F7N A 413      54.370  -2.077  53.745  1.00  0.00    -0.584 A  
HETATM   22  C18 F7N A 413      53.041  -1.996  53.353  1.00  0.00    -0.487 A  
HETATM   23  C17 F7N A 413      52.018  -2.306  54.234  1.00  0.00    -0.608 A  
HETATM   24  C29 F7N A 413      50.587  -2.231  53.796  1.00  0.00    -0.361 C  
HETATM   25  C16 F7N A 413      52.353  -2.716  55.511  1.00  0.00    -0.443 A  
HETATM   26  N15 F7N A 413      53.625  -2.806  55.938  1.00  0.00    -0.244 NA 
HETATM   27  F31 F7N A 413      50.137  -3.392  53.341  1.00  0.00    -0.505 F  
HETATM   28  F32 F7N A 413      49.767  -1.878  54.773  1.00  0.00    -0.465 F  
HETATM   29  F30 F7N A 413      50.372  -1.342  52.829  1.00  0.00    -0.462 F  
HETATM   30  C14 F7N A 413      54.613  -2.492  55.077  1.00  0.00    -0.426 A  
HETATM   31  C11 F7N A 413      56.019  -2.615  55.597  1.00  0.00    -0.401 C  
HETATM   32  C10 F7N A 413      56.990  -1.877  54.698  1.00  0.00    -0.235 C  
ENDBRANCH  13  17
ENDBRANCH   7   9
ENDBRANCH   3   7
BRANCH   5  33
HETATM   33  O7  F7N A 413      64.312  -1.304  52.815  1.00  0.00    -0.318 OA 
HETATM   34  C8  F7N A 413      64.891  -2.461  53.398  1.00  0.00    -0.215 C  
ENDBRANCH   5  33
TORSDOF 4
ENDMDL
