MODEL        1
REMARK THIS MODEL IS IDENTICAL TO THE INPUT LIGAND AND NOT FROM DOCKING
REMARK 921   NORMALIZED FREE ENERGY PREDICTED BY IDOCK:   -9.26 KCAL/MOL
REMARK 922        TOTAL FREE ENERGY PREDICTED BY IDOCK:  -14.17 KCAL/MOL
REMARK 923 INTER-LIGAND FREE ENERGY PREDICTED BY IDOCK:  -13.59 KCAL/MOL
REMARK 924 INTRA-LIGAND FREE ENERGY PREDICTED BY IDOCK:   -0.57 KCAL/MOL
REMARK 927      BINDING AFFINITY PREDICTED BY RF-SCORE:    0.00 PKD
ROOT
HETATM    1  C1  H98 A 501     -43.249  29.913 -10.728  1.00  0.00    -0.790 C  
HETATM    2  C2  H98 A 501     -42.788  28.454 -10.548  1.00  0.00    -0.334 C  
ENDROOT
BRANCH   2   3
HETATM    3  N1  H98 A 501     -41.438  28.231 -11.118  1.00  0.00    -0.308 NA 
HETATM    4  H1  H98 A 501     -40.748  28.799 -10.626  1.00  0.00     0.000 HD 
BRANCH   3   5
HETATM    5  C11 H98 A 501     -41.338  28.451 -12.565  1.00  0.00    -0.309 C  
BRANCH   5   6
HETATM    6  C12 H98 A 501     -40.185  27.688 -13.214  1.00  0.00    -0.491 C  
HETATM    7  H4  H98 A 501     -38.278  27.492 -12.891  1.00  0.00     0.000 HD 
HETATM    8  O4  H98 A 501     -38.995  27.967 -12.487  1.00  0.00    -0.073 OA 
BRANCH   6   9
HETATM    9  C13 H98 A 501     -40.134  28.038 -14.698  1.00  0.00    -0.696 A  
HETATM   10  C14 H98 A 501     -41.177  27.658 -15.543  1.00  0.00    -0.797 A  
HETATM   11  H2  H98 A 501     -39.292  29.376 -19.127  1.00  0.00     0.000 HD 
HETATM   12  C18 H98 A 501     -39.059  28.729 -15.245  1.00  0.00    -0.875 A  
HETATM   13  C15 H98 A 501     -41.141  27.962 -16.902  1.00  0.00    -0.524 A  
HETATM   14  C16 H98 A 501     -40.041  28.642 -17.438  1.00  0.00    -0.646 A  
HETATM   15  C17 H98 A 501     -39.004  29.029 -16.592  1.00  0.00    -0.975 A  
HETATM   16  O2  H98 A 501     -40.039  28.915 -18.763  1.00  0.00    -0.724 OA 
BRANCH  13  17
HETATM   17  N2  H98 A 501     -42.166  27.617 -17.811  1.00  0.00    -0.647 N  
HETATM   18  H2  H98 A 501     -42.077  28.012 -18.747  1.00  0.00     0.000 HD 
HETATM   19  C19 H98 A 501     -43.233  26.846 -17.611  1.00  0.00     0.005 C  
HETATM   20  O3  H98 A 501     -44.289  26.945 -18.218  1.00  0.00    -0.964 OA 
ENDBRANCH  13  17
ENDBRANCH   6   9
ENDBRANCH   5   6
ENDBRANCH   3   5
ENDBRANCH   2   3
BRANCH   2  21
HETATM   21  C3  H98 A 501     -42.825  28.007  -9.071  1.00  0.00    -0.617 C  
BRANCH  21  22
HETATM   22  C4  H98 A 501     -44.110  27.310  -8.675  1.00  0.00    -0.511 A  
HETATM   23  C5  H98 A 501     -44.307  25.961  -8.961  1.00  0.00    -0.590 A  
HETATM   24  C6  H98 A 501     -45.476  25.306  -8.605  1.00  0.00    -0.586 A  
HETATM   25  C9  H98 A 501     -45.122  27.994  -8.012  1.00  0.00    -0.597 A  
HETATM   26  C8  H98 A 501     -46.299  27.356  -7.643  1.00  0.00    -0.481 A  
HETATM   27  C7  H98 A 501     -46.485  26.008  -7.948  1.00  0.00    -0.369 A  
BRANCH  27  28
HETATM   28  O1  H98 A 501     -47.671  25.413  -7.591  1.00  0.00    -0.323 OA 
HETATM   29  C10 H98 A 501     -48.353  24.563  -8.519  1.00  0.00    -0.375 C  
ENDBRANCH  27  28
ENDBRANCH  21  22
ENDBRANCH   2  21
TORSDOF 8
ENDMDL
