MODEL        1
REMARK THIS MODEL IS IDENTICAL TO THE INPUT LIGAND AND NOT FROM DOCKING
REMARK 921   NORMALIZED FREE ENERGY PREDICTED BY IDOCK:   -8.47 KCAL/MOL
REMARK 922        TOTAL FREE ENERGY PREDICTED BY IDOCK:  -11.45 KCAL/MOL
REMARK 923 INTER-LIGAND FREE ENERGY PREDICTED BY IDOCK:  -10.94 KCAL/MOL
REMARK 924 INTRA-LIGAND FREE ENERGY PREDICTED BY IDOCK:   -0.50 KCAL/MOL
REMARK 927      BINDING AFFINITY PREDICTED BY RF-SCORE:    0.00 PKD
ROOT
HETATM    1  O2  I32 A 400      64.420  -9.843  14.497  1.00  0.00    -0.828 OA 
HETATM    2  C10 I32 A 400      63.521  -8.900  15.137  1.00  0.00    -0.527 C  
HETATM    3  H2  I32 A 400      64.816 -10.408  15.150  1.00  0.00     0.000 HD 
ENDROOT
BRANCH   2   4
HETATM    4  C9  I32 A 400      62.383  -9.664  15.867  1.00  0.00    -0.360 C  
BRANCH   4   5
HETATM    5  O1  I32 A 400      61.493  -8.764  16.589  1.00  0.00    -0.338 OA 
BRANCH   5   6
HETATM    6  C4  I32 A 400      60.420  -9.434  17.061  1.00  0.00    -0.473 A  
HETATM    7  C3  I32 A 400      59.247  -8.772  17.363  1.00  0.00    -0.585 A  
HETATM    8  C8  I32 A 400      58.161  -9.480  17.849  1.00  0.00    -0.436 A  
HETATM    9  N1  I32 A 400      57.158  -8.642  18.069  1.00  0.00    -0.683 NA 
HETATM   10  C7  I32 A 400      58.244 -10.846  18.029  1.00  0.00    -0.462 A  
HETATM   11  H1  I32 A 400      56.238  -8.899  18.427  1.00  0.00     0.000 HD 
HETATM   12  C6  I32 A 400      59.411 -11.510  17.730  1.00  0.00    -0.547 A  
HETATM   13  C1  I32 A 400      57.547  -7.413  17.747  1.00  0.00    -0.359 A  
HETATM   14  C5  I32 A 400      60.484 -10.803  17.252  1.00  0.00    -0.725 A  
HETATM   15  C16 I32 A 400      56.847  -6.171  17.797  1.00  0.00    -0.248 C  
HETATM   16  C2  I32 A 400      58.837  -7.459  17.308  1.00  0.00    -0.359 A  
HETATM   17  IAA I32 A 400      59.885  -5.747  16.689  1.00  0.00    -0.527 I  
HETATM   18  NAF I32 A 400      56.298  -5.172  17.822  1.00  0.00    -0.572 NA 
ENDBRANCH   5   6
ENDBRANCH   4   5
ENDBRANCH   2   4
BRANCH   2  19
HETATM   19  C11 I32 A 400      62.882  -7.988  14.082  1.00  0.00    -0.469 C  
BRANCH  19  20
HETATM   20  N2  I32 A 400      63.908  -7.357  13.227  1.00  0.00    -0.711 NA 
HETATM   21  H2  I32 A 400      64.525  -8.051  12.805  1.00  0.00     0.000 HD 
HETATM   22  C12 I32 A 400      63.281  -6.488  12.206  1.00  0.00    -0.363 C  
HETATM   23  C14 I32 A 400      62.400  -7.305  11.277  1.00  0.00    -0.450 C  
HETATM   24  C15 I32 A 400      64.376  -5.861  11.356  1.00  0.00    -0.450 C  
HETATM   25  C13 I32 A 400      62.478  -5.416  12.948  1.00  0.00    -0.470 C  
ENDBRANCH  19  20
ENDBRANCH   2  19
TORSDOF 5
ENDMDL
