MODEL        1
REMARK THIS MODEL IS IDENTICAL TO THE INPUT LIGAND AND NOT FROM DOCKING
REMARK 921   NORMALIZED FREE ENERGY PREDICTED BY IDOCK:  -14.57 KCAL/MOL
REMARK 922        TOTAL FREE ENERGY PREDICTED BY IDOCK:  -18.69 KCAL/MOL
REMARK 923 INTER-LIGAND FREE ENERGY PREDICTED BY IDOCK:  -17.97 KCAL/MOL
REMARK 924 INTRA-LIGAND FREE ENERGY PREDICTED BY IDOCK:   -0.72 KCAL/MOL
REMARK 927      BINDING AFFINITY PREDICTED BY RF-SCORE:    0.00 PKD
ROOT
HETATM    1  C12 A8T A1201      14.929 -12.029 -13.751  1.00  0.00    -0.905 C  
HETATM    2  C11 A8T A1201      14.532 -10.825 -14.515  1.00  0.00    -0.356 C  
HETATM    3  C2  A8T A1201      14.211 -11.126 -15.975  1.00  0.00    -0.474 A  
HETATM    4  O1  A8T A1201      13.403 -10.326 -13.910  1.00  0.00    -0.516 OA 
HETATM    5  C13 A8T A1201      15.637  -9.764 -14.469  1.00  0.00    -0.649 C  
HETATM    6  C3  A8T A1201      14.740 -12.274 -16.632  1.00  0.00    -0.440 A  
HETATM    7  H1  A8T A1201      13.603 -10.138 -13.000  1.00  0.00     0.000 HD 
HETATM    8  N1  A8T A1201      14.467 -12.664 -17.906  1.00  0.00    -0.681 NA 
HETATM    9  C4  A8T A1201      13.676 -11.884 -18.684  1.00  0.00    -0.410 A  
HETATM   10  C1  A8T A1201      13.385 -10.316 -16.794  1.00  0.00    -0.584 A  
HETATM   11  C5  A8T A1201      13.120 -10.691 -18.126  1.00  0.00    -0.387 A  
ENDROOT
BRANCH   9  12
HETATM   12  N2  A8T A1201      13.467 -12.253 -20.102  1.00  0.00    -0.364 NA 
HETATM   13  C9  A8T A1201      14.558 -12.990 -20.710  1.00  0.00    -0.482 C  
HETATM   14  C8  A8T A1201      14.481 -12.964 -22.205  1.00  0.00    -0.509 C  
HETATM   15  N3  A8T A1201      13.121 -13.343 -22.680  1.00  0.00    -0.357 NA 
HETATM   16  C7  A8T A1201      12.037 -12.569 -22.067  1.00  0.00    -0.377 C  
HETATM   17  C6  A8T A1201      12.110 -12.581 -20.547  1.00  0.00    -0.409 C  
BRANCH  15  18
HETATM   18  C10 A8T A1201      13.036 -13.522 -24.143  1.00  0.00    -0.448 A  
HETATM   19  C14 A8T A1201      13.647 -14.674 -24.843  1.00  0.00    -0.553 A  
HETATM   20  C17 A8T A1201      14.348 -15.703 -24.176  1.00  0.00    -0.609 A  
HETATM   21  C18 A8T A1201      14.919 -16.783 -24.908  1.00  0.00    -0.653 A  
HETATM   22  C19 A8T A1201      14.847 -16.827 -26.298  1.00  0.00    -0.662 A  
HETATM   23  C20 A8T A1201      14.195 -15.773 -26.987  1.00  0.00    -0.613 A  
HETATM   24  C15 A8T A1201      13.570 -14.698 -26.284  1.00  0.00    -0.533 A  
HETATM   25  C16 A8T A1201      12.853 -13.612 -26.925  1.00  0.00    -0.330 A  
HETATM   26  N5  A8T A1201      12.412 -12.571 -24.867  1.00  0.00    -0.581 NA 
HETATM   27  N4  A8T A1201      12.330 -12.603 -26.201  1.00  0.00    -0.437 NA 
BRANCH  25  28
HETATM   28  C21 A8T A1201      12.612 -13.550 -28.475  1.00  0.00    -0.530 C  
BRANCH  28  29
HETATM   29  C22 A8T A1201      13.524 -12.549 -29.192  1.00  0.00    -0.462 A  
HETATM   30  C23 A8T A1201      14.689 -12.079 -28.609  1.00  0.00    -0.669 A  
HETATM   31  C24 A8T A1201      15.552 -11.092 -29.368  1.00  0.00    -1.096 A  
HETATM   32  C25 A8T A1201      15.187 -10.711 -30.651  1.00  0.00    -0.749 A  
HETATM   33  C26 A8T A1201      13.932 -11.245 -31.286  1.00  0.00    -0.644 A  
HETATM   34  C27 A8T A1201      13.135 -12.136 -30.598  1.00  0.00    -0.504 A  
ENDBRANCH  28  29
ENDBRANCH  25  28
ENDBRANCH  15  18
ENDBRANCH   9  12
TORSDOF 4
ENDMDL
