REMARK  4 active torsions:
REMARK  status: ('A' for Active; 'I' for Inactive)
REMARK    1  A    between atoms: C6_16  and  C16_19
REMARK    2  A    between atoms: N3_20  and  C17_23
REMARK    3  A    between atoms: C19_35  and  C27_40
REMARK    4  A    between atoms: C27_40  and  C28_41
ROOT
HETATM    1  C1  ERM A1202     -23.207 -14.779   5.258  1.00  0.00     0.061 A
HETATM    2  N1  ERM A1202     -23.981 -13.841   5.853  1.00  0.00    -0.264 NA
HETATM    3  C13 ERM A1202     -23.956 -14.004   7.241  1.00  0.00     0.028 A
HETATM    4  H1  ERM A1202     -24.507 -13.119   5.360  1.00  0.00     0.133 HD
HETATM    5  C12 ERM A1202     -24.531 -13.360   8.274  1.00  0.00     0.020 A
HETATM    6  C11 ERM A1202     -24.263 -13.829   9.591  1.00  0.00     0.002 A
HETATM    7  C10 ERM A1202     -23.417 -14.936   9.772  1.00  0.00     0.009 A
HETATM    8  C9  ERM A1202     -22.826 -15.598   8.707  1.00  0.00    -0.012 A
HETATM    9  C14 ERM A1202     -23.120 -15.104   7.428  1.00  0.00     0.005 A
HETATM   10  C2  ERM A1202     -22.648 -15.596   6.197  1.00  0.00    -0.026 A
HETATM   11  C3  ERM A1202     -21.729 -16.778   6.157  1.00  0.00     0.060 C
HETATM   12  C4  ERM A1202     -21.926 -17.607   7.478  1.00  0.00     0.091 C
HETATM   13  N2  ERM A1202     -20.898 -18.702   7.541  1.00  0.00    -0.297 NA
HETATM   14  C15 ERM A1202     -21.108 -19.722   6.479  1.00  0.00     0.105 C
HETATM   15  C5  ERM A1202     -20.849 -19.400   8.867  1.00  0.00     0.101 C
HETATM   16  C6  ERM A1202     -20.410 -18.391   9.896  1.00  0.00     0.109 C
HETATM   17  C7  ERM A1202     -21.287 -17.170   9.864  1.00  0.00    -0.008 C
HETATM   18  C8  ERM A1202     -21.903 -16.787   8.751  1.00  0.00    -0.025 C
ENDROOT
BRANCH  16  19
HETATM   19  C16 ERM A1202     -20.336 -19.066  11.301  1.00  0.00     0.211 C
HETATM   20  N3  ERM A1202     -19.159 -19.150  11.962  1.00  0.00    -0.222 N
HETATM   21  O1  ERM A1202     -21.345 -19.525  11.781  1.00  0.00    -0.279 OA
HETATM   22  H3  ERM A1202     -18.317 -18.757  11.542  1.00  0.00     0.134 HD
BRANCH  20  23
HETATM   23  C17 ERM A1202     -19.079 -19.801  13.277  1.00  0.00     0.202 C
HETATM   24  O2  ERM A1202     -19.492 -21.169  13.213  1.00  0.00    -0.305 OA
HETATM   25  C26 ERM A1202     -17.640 -19.624  13.724  1.00  0.00     0.070 C
HETATM   26  C25 ERM A1202     -20.705 -21.456  13.916  1.00  0.00     0.255 C
HETATM   27  C24 ERM A1202     -20.578 -22.568  14.942  1.00  0.00     0.141 C
HETATM   28  O5  ERM A1202     -21.747 -21.712  13.035  1.00  0.00    -0.351 OA
HETATM   29  C23 ERM A1202     -20.639 -23.987  14.353  1.00  0.00     0.027 C
HETATM   30  H5  ERM A1202     -22.552 -21.903  13.502  1.00  0.00     0.214 HD
HETATM   31  C22 ERM A1202     -21.723 -24.674  15.235  1.00  0.00     0.018 C
HETATM   32  C21 ERM A1202     -21.933 -23.737  16.400  1.00  0.00     0.093 C
HETATM   33  N5  ERM A1202     -21.688 -22.417  15.850  1.00  0.00    -0.233 N
HETATM   34  C20 ERM A1202     -22.348 -21.316  16.131  1.00  0.00     0.222 C
HETATM   35  C19 ERM A1202     -21.989 -19.995  15.470  1.00  0.00     0.156 C
HETATM   36  O4  ERM A1202     -23.283 -21.359  16.938  1.00  0.00    -0.278 OA
HETATM   37  N4  ERM A1202     -20.899 -20.175  14.562  1.00  0.00    -0.175 N
HETATM   38  C18 ERM A1202     -20.048 -19.195  14.262  1.00  0.00     0.255 C
HETATM   39  O3  ERM A1202     -20.043 -18.061  14.692  1.00  0.00    -0.274 OA
BRANCH  35  40
HETATM   40  C27 ERM A1202     -23.178 -19.432  14.749  1.00  0.00     0.063 C
BRANCH  40  41
HETATM   41  C28 ERM A1202     -24.012 -18.562  15.664  1.00  0.00    -0.045 A
HETATM   42  C29 ERM A1202     -23.451 -17.439  16.275  1.00  0.00     0.004 A
HETATM   43  C30 ERM A1202     -24.228 -16.640  17.113  1.00  0.00     0.000 A
HETATM   44  C31 ERM A1202     -25.568 -16.962  17.338  1.00  0.00     0.000 A
HETATM   45  C32 ERM A1202     -26.128 -18.082  16.726  1.00  0.00     0.000 A
HETATM   46  C33 ERM A1202     -25.351 -18.881  15.887  1.00  0.00     0.004 A
ENDBRANCH  40  41
ENDBRANCH  35  40
ENDBRANCH  20  23
ENDBRANCH  16  19
TORSDOF 4
