REMARK  9 active torsions:
REMARK  status: ('A' for Active; 'I' for Inactive)
REMARK    1  A    between atoms: C1_1  and  O2_3
REMARK    2  A    between atoms: C1_1  and  C4_6
REMARK    3  A    between atoms: O2_3  and  C2_4
REMARK    4  A    between atoms: C12_12  and  O4_16
REMARK    5  A    between atoms: O4_16  and  C13_17
REMARK    6  A    between atoms: C13_17  and  C14_18
REMARK    7  A    between atoms: C14_18  and  C15_21
REMARK    8  A    between atoms: C15_21  and  N1_22
REMARK    9  A    between atoms: N1_22  and  C16_24
ROOT
HETATM    1  C1  JSZ A1203       2.017   0.433  53.623  1.00  0.00     0.318 C
HETATM    2  O1  JSZ A1203       1.234  -0.427  53.987  1.00  0.00    -0.257 OA
ENDROOT
BRANCH   1   3
HETATM    3  O2  JSZ A1203       3.165   0.794  54.448  1.00  0.00    -0.310 OA
BRANCH   3   4
HETATM    4  C2  JSZ A1203       3.300   0.345  55.803  1.00  0.00     0.167 C
HETATM    5  C3  JSZ A1203       3.721   1.505  56.681  1.00  0.00     0.035 C
ENDBRANCH   3   4
ENDBRANCH   1   3
BRANCH   1   6
HETATM    6  C4  JSZ A1203       1.790   1.125  52.333  1.00  0.00     0.158 A
HETATM    7  O3  JSZ A1203       1.295   0.486  51.240  1.00  0.00    -0.302 OA
HETATM    8  C10 JSZ A1203       0.706   2.158  48.050  1.00  0.00     0.005 A
HETATM    9  C9  JSZ A1203       0.752   1.131  48.994  1.00  0.00     0.034 A
HETATM   10  C8  JSZ A1203       1.215   1.405  50.276  1.00  0.00     0.093 A
HETATM   11  C7  JSZ A1203       1.630   2.695  50.627  1.00  0.00     0.041 A
HETATM   12  C12 JSZ A1203       1.586   3.723  49.675  1.00  0.00     0.086 A
HETATM   13  C5  JSZ A1203       2.013   2.545  51.970  1.00  0.00    -0.002 A
HETATM   14  C11 JSZ A1203       1.117   3.445  48.390  1.00  0.00     0.033 A
HETATM   15  C6  JSZ A1203       2.534   3.726  52.744  1.00  0.00     0.047 C
BRANCH  12  16
HETATM   16  O4  JSZ A1203       1.968   5.008  49.979  1.00  0.00    -0.341 OA
BRANCH  16  17
HETATM   17  C13 JSZ A1203       3.172   5.640  49.528  1.00  0.00     0.200 C
BRANCH  17  18
HETATM   18  C14 JSZ A1203       3.398   6.937  50.309  1.00  0.00     0.154 C
HETATM   19  O5  JSZ A1203       3.395   8.051  49.412  1.00  0.00    -0.388 OA
HETATM   20  H5  JSZ A1203       3.535   8.856  49.897  1.00  0.00     0.210 HD
BRANCH  18  21
HETATM   21  C15 JSZ A1203       2.314   7.168  51.358  1.00  0.00     0.114 C
BRANCH  21  22
HETATM   22  N1  JSZ A1203       2.585   8.406  52.111  1.00  0.00    -0.311 NA
HETATM   23  H1  JSZ A1203       1.915   9.140  51.881  1.00  0.00     0.122 HD
BRANCH  22  24
HETATM   24  C16 JSZ A1203       2.628   8.142  53.572  1.00  0.00     0.048 C
HETATM   25  C18 JSZ A1203       1.308   7.564  54.074  1.00  0.00     0.023 C
HETATM   26  C17 JSZ A1203       2.957   9.432  54.317  1.00  0.00     0.023 C
ENDBRANCH  22  24
ENDBRANCH  21  22
ENDBRANCH  18  21
ENDBRANCH  17  18
ENDBRANCH  16  17
ENDBRANCH  12  16
ENDBRANCH   1   6
TORSDOF 9
