REMARK  7 active torsions:
REMARK  status: ('A' for Active; 'I' for Inactive)
REMARK    1  A    between atoms: C7_8  and  C8_11
REMARK    2  A    between atoms: C8_11  and  S2_12
REMARK    3  A    between atoms: S2_12  and  C9_13
REMARK    4  A    between atoms: C9_13  and  N4_14
REMARK    5  A    between atoms: C9_13  and  N3_22
REMARK    6  A    between atoms: N4_14  and  C16_16
REMARK    7  A    between atoms: N3_22  and  C10_24
ROOT
HETATM    1  C1  ITD A1500      13.792  30.602  69.119  1.00  0.00     0.041 C
HETATM    2  C2  ITD A1500      15.135  30.316  69.780  1.00  0.00     0.087 C
HETATM    3  N1  ITD A1500      15.438  28.886  69.702  1.00  0.00    -0.254 NA
HETATM    4  C3  ITD A1500      16.256  31.102  69.107  1.00  0.00     0.041 C
HETATM    5  C4  ITD A1500      15.605  28.424  70.950  1.00  0.00     0.152 C
HETATM    6  S1  ITD A1500      16.040  26.894  71.584  1.00  0.00    -0.064 SA
HETATM    7  C5  ITD A1500      15.961  27.546  73.193  1.00  0.00     0.065 C
HETATM    8  C7  ITD A1500      15.601  28.911  73.113  1.00  0.00     0.023 C
HETATM    9  C6  ITD A1500      15.079  30.654  71.281  1.00  0.00     0.070 C
HETATM   10  N2  ITD A1500      15.429  29.359  71.844  1.00  0.00    -0.204 NA
ENDROOT
BRANCH   8  11
HETATM   11  C8  ITD A1500      15.465  29.802  74.320  1.00  0.00     0.124 C
BRANCH  11  12
HETATM   12  S2  ITD A1500      17.050  30.502  74.625  1.00  0.00    -0.096 SA
BRANCH  12  13
HETATM   13  C9  ITD A1500      18.060  29.336  75.248  1.00  0.00     0.095 C
BRANCH  13  14
HETATM   14  N4  ITD A1500      19.348  29.278  74.885  1.00  0.00    -0.270 NA
HETATM   15  H4  ITD A1500      20.028  29.157  75.635  1.00  0.00     0.129 HD
BRANCH  14  16
HETATM   16  C16 ITD A1500      19.881  29.370  73.525  1.00  0.00     0.060 C
HETATM   17  C21 ITD A1500      20.526  30.728  73.257  1.00  0.00     0.019 C
HETATM   18  C17 ITD A1500      18.918  28.964  72.409  1.00  0.00     0.019 C
HETATM   19  C20 ITD A1500      21.168  30.825  71.876  1.00  0.00     0.002 C
HETATM   20  C18 ITD A1500      19.573  29.085  71.035  1.00  0.00     0.002 C
HETATM   21  C19 ITD A1500      20.158  30.474  70.790  1.00  0.00     0.000 C
ENDBRANCH  14  16
ENDBRANCH  13  14
BRANCH  13  22
HETATM   22  N3  ITD A1500      17.521  28.498  76.139  1.00  0.00    -0.270 NA
HETATM   23  H3  ITD A1500      16.532  28.638  76.346  1.00  0.00     0.129 HD
BRANCH  22  24
HETATM   24  C10 ITD A1500      18.175  27.411  76.849  1.00  0.00     0.060 C
HETATM   25  C14 ITD A1500      19.409  25.218  76.764  1.00  0.00     0.002 C
HETATM   26  C15 ITD A1500      18.883  26.400  75.948  1.00  0.00     0.019 C
HETATM   27  C12 ITD A1500      19.532  26.728  78.817  1.00  0.00     0.002 C
HETATM   28  C13 ITD A1500      20.231  25.658  77.978  1.00  0.00     0.000 C
HETATM   29  C11 ITD A1500      19.100  27.912  77.954  1.00  0.00     0.019 C
ENDBRANCH  22  24
ENDBRANCH  13  22
ENDBRANCH  12  13
ENDBRANCH  11  12
ENDBRANCH   8  11
TORSDOF 7
