REMARK  4 active torsions:
REMARK  status: ('A' for Active; 'I' for Inactive)
REMARK    1  A    between atoms: C5_6  and  C9_8
REMARK    2  A    between atoms: C6_7  and  C7_17
REMARK    3  A    between atoms: C9_8  and  C10_11
REMARK    4  A    between atoms: C7_17  and  C8_18
ROOT
HETATM    1  C1  8TZ A2201      14.509   6.753  55.807  1.00  0.00     0.042 A
HETATM    2  C2  8TZ A2201      14.174   5.788  54.814  1.00  0.00     0.124 A
HETATM    3  F1  8TZ A2201      12.889   5.683  54.373  1.00  0.00    -0.205 F
HETATM    4  C3  8TZ A2201      15.168   4.943  54.287  1.00  0.00     0.039 A
HETATM    5  C4  8TZ A2201      16.485   5.052  54.742  1.00  0.00     0.009 A
HETATM    6  C5  8TZ A2201      16.819   6.007  55.725  1.00  0.00    -0.009 A
HETATM    7  C6  8TZ A2201      15.822   6.854  56.257  1.00  0.00    -0.039 A
ENDROOT
BRANCH   6   8
HETATM    8  C9  8TZ A2201      18.236   6.113  56.207  1.00  0.00     0.205 C
HETATM    9  O1  8TZ A2201      18.917   7.111  55.481  1.00  0.00    -0.380 OA
HETATM   10  H1  8TZ A2201      19.814   7.178  55.786  1.00  0.00     0.211 HD
BRANCH   8  11
HETATM   11  C10 8TZ A2201      18.940   4.779  56.002  1.00  0.00     0.120 A
HETATM   12  N1  8TZ A2201      19.823   4.492  55.017  1.00  0.00    -0.249 NA
HETATM   13  N2  8TZ A2201      18.791   3.674  56.774  1.00  0.00    -0.244 NA
HETATM   14  H1  8TZ A2201      20.133   5.128  54.282  1.00  0.00     0.134 HD
HETATM   15  C11 8TZ A2201      20.221   3.210  55.182  1.00  0.00     0.078 A
HETATM   16  C12 8TZ A2201      19.581   2.707  56.268  1.00  0.00     0.124 A
ENDBRANCH   8  11
ENDBRANCH   6   8
BRANCH   7  17
HETATM   17  C7  8TZ A2201      16.189   7.893  57.329  1.00  0.00     0.035 C
BRANCH  17  18
HETATM   18  C8  8TZ A2201      15.767   9.296  56.853  1.00  0.00     0.001 C
HETATM   19  C13 8TZ A2201      16.232  10.379  57.931  1.00  0.00     0.004 C
ENDBRANCH  17  18
ENDBRANCH   7  17
TORSDOF 4
