REMARK  4 active torsions:
REMARK  status: ('A' for Active; 'I' for Inactive)
REMARK    1  A    between atoms: CAV_7  and  CAO_8
REMARK    2  A    between atoms: NAP_12  and  CAN_14
REMARK    3  A    between atoms: CAN_14  and  CAZ_15
REMARK    4  A    between atoms: CAZ_15  and  CAW_18
ROOT
HETATM    1  CAA P0G A1401      -6.393 -10.915 -54.317  1.00  0.00     0.044 C
HETATM    2  CAT P0G A1401      -6.502 -12.416 -54.354  1.00  0.00    -0.047 A
HETATM    3  CAI P0G A1401      -6.755 -13.027 -55.573  1.00  0.00     0.003 A
HETATM    4  CAG P0G A1401      -6.857 -14.410 -55.642  1.00  0.00     0.000 A
HETATM    5  CAH P0G A1401      -6.710 -15.185 -54.497  1.00  0.00     0.000 A
HETATM    6  CAJ P0G A1401      -6.467 -14.573 -53.281  1.00  0.00     0.004 A
HETATM    7  CAV P0G A1401      -6.345 -13.188 -53.208  1.00  0.00    -0.043 A
ENDROOT
BRANCH   7   8
HETATM    8  CAO P0G A1401      -6.081 -12.556 -51.859  1.00  0.00     0.057 C
HETATM    9  CBA P0G A1401      -4.601 -12.400 -51.508  1.00  0.00     0.018 C
HETATM   10  CAC P0G A1401      -3.679 -13.236 -52.387  1.00  0.00     0.027 C
HETATM   11  CAB P0G A1401      -4.199 -10.932 -51.583  1.00  0.00     0.027 C
HETATM   12  NAP P0G A1401      -4.408 -12.801 -50.131  1.00  0.00    -0.308 NA
HETATM   13  HAP P0G A1401      -5.090 -13.392 -49.656  1.00  0.00     0.123 HD
BRANCH  12  14
HETATM   14  CAN P0G A1401      -3.218 -12.339 -49.448  1.00  0.00     0.117 C
BRANCH  14  15
HETATM   15  CAZ P0G A1401      -2.687 -13.464 -48.577  1.00  0.00     0.161 C
HETATM   16  HAF P0G A1401      -3.324 -14.408 -46.998  1.00  0.00     0.210 HD
HETATM   17  OAF P0G A1401      -3.656 -13.704 -47.543  1.00  0.00    -0.386 OA
BRANCH  15  18
HETATM   18  CAW P0G A1401      -1.363 -13.076 -48.020  1.00  0.00     0.014 A
HETATM   19  CAY P0G A1401      -0.201 -13.086 -48.797  1.00  0.00     0.103 A
HETATM   20  OAR P0G A1401      -0.189 -13.431 -50.122  1.00  0.00    -0.334 OA
HETATM   21  CAM P0G A1401       0.963 -14.115 -50.627  1.00  0.00     0.259 C
HETATM   22  CAS P0G A1401       2.240 -13.496 -50.093  1.00  0.00     0.231 C
HETATM   23  OAD P0G A1401       3.313 -13.708 -50.637  1.00  0.00    -0.277 OA
HETATM   24  NAQ P0G A1401       2.133 -12.722 -49.017  1.00  0.00    -0.222 N
HETATM   25  CAX P0G A1401       1.019 -12.727 -48.248  1.00  0.00     0.083 A
HETATM   26  HAQ P0G A1401       2.909 -12.110 -48.765  1.00  0.00     0.137 HD
HETATM   27  CAU P0G A1401       1.103 -12.357 -46.921  1.00  0.00     0.093 A
HETATM   28  OAE P0G A1401       2.310 -12.006 -46.394  1.00  0.00    -0.358 OA
HETATM   29  CAK P0G A1401      -0.043 -12.351 -46.134  1.00  0.00     0.034 A
HETATM   30  CAL P0G A1401      -1.271 -12.710 -46.682  1.00  0.00     0.011 A
HETATM   31  HAE P0G A1401       2.368 -11.751 -45.481  1.00  0.00     0.217 HD
ENDBRANCH  15  18
ENDBRANCH  14  15
ENDBRANCH  12  14
ENDBRANCH   7   8
TORSDOF 4
