MODEL        1
REMARK THIS MODEL IS IDENTICAL TO THE INPUT LIGAND AND NOT FROM DOCKING
REMARK 921   NORMALIZED FREE ENERGY PREDICTED BY IDOCK:   -8.01 KCAL/MOL
REMARK 922        TOTAL FREE ENERGY PREDICTED BY IDOCK:  -10.58 KCAL/MOL
REMARK 923 INTER-LIGAND FREE ENERGY PREDICTED BY IDOCK:  -10.35 KCAL/MOL
REMARK 924 INTRA-LIGAND FREE ENERGY PREDICTED BY IDOCK:   -0.23 KCAL/MOL
REMARK 927      BINDING AFFINITY PREDICTED BY RF-SCORE:    0.00 PKD
ROOT
HETATM    1  C1  ZMA A 505       1.406 103.424  56.371  1.00  0.00    -0.385 A  
HETATM    2  C7  ZMA A 505       0.540 102.438  55.901  1.00  0.00    -0.393 A  
HETATM    3  O4  ZMA A 505      -0.358 106.480  55.484  1.00  0.00    -0.211 OA 
HETATM    4  C6  ZMA A 505      -0.650 102.831  55.314  1.00  0.00    -0.588 A  
HETATM    5  C2  ZMA A 505       1.105 104.768  56.235  1.00  0.00    -0.202 A  
HETATM    6  C5  ZMA A 505      -0.983 104.172  55.197  1.00  0.00    -0.502 A  
HETATM    7  H4  ZMA A 505      -1.179 106.738  55.082  1.00  0.00     0.000 HD 
HETATM    8  C3  ZMA A 505      -0.095 105.145  55.647  1.00  0.00    -0.180 A  
ENDROOT
BRANCH   2   9
HETATM    9  C8  ZMA A 505       0.946 100.994  55.930  1.00  0.00    -0.450 C  
BRANCH   9  10
HETATM   10  C9  ZMA A 505       1.987 100.741  54.876  1.00  0.00    -0.309 C  
BRANCH  10  11
HETATM   11  N10 ZMA A 505       2.211  99.329  54.656  1.00  0.00    -0.285 NA 
HETATM   12  H10 ZMA A 505       3.076  98.906  54.991  1.00  0.00     0.000 HD 
BRANCH  11  13
HETATM   13  C11 ZMA A 505       1.333  98.580  54.038  1.00  0.00    -0.237 C  
HETATM   14  N12 ZMA A 505       1.795  97.297  53.838  1.00  0.00    -0.430 NA 
HETATM   15  C18 ZMA A 505       0.948  96.546  53.124  1.00  0.00    -0.482 A  
HETATM   16  N16 ZMA A 505      -0.278  97.013  52.720  1.00  0.00    -0.373 NA 
HETATM   17  N17 ZMA A 505      -1.019  96.002  52.209  1.00  0.00    -0.704 NA 
HETATM   18  C14 ZMA A 505      -0.688  98.309  52.962  1.00  0.00    -0.393 C  
HETATM   19  C20 ZMA A 505      -0.163  94.989  52.266  1.00  0.00    -0.460 A  
HETATM   20  N13 ZMA A 505       0.150  99.104  53.612  1.00  0.00    -0.456 NA 
HETATM   21  N15 ZMA A 505      -1.871  98.756  52.522  1.00  0.00    -0.650 NA 
HETATM   22 2H15 ZMA A 505      -2.481  98.128  51.998  1.00  0.00     0.000 HD 
HETATM   23 1H15 ZMA A 505      -2.174  99.713  52.701  1.00  0.00     0.000 HD 
HETATM   24  N19 ZMA A 505       1.056  95.258  52.808  1.00  0.00    -0.393 NA 
BRANCH  19  25
HETATM   25  C21 ZMA A 505      -0.450  93.670  51.778  1.00  0.00    -0.259 A  
HETATM   26  C22 ZMA A 505       0.239  92.555  51.658  1.00  0.00    -0.633 A  
HETATM   27  C23 ZMA A 505      -0.688  91.562  51.193  1.00  0.00    -0.689 A  
HETATM   28  C24 ZMA A 505      -1.867  92.164  51.089  1.00  0.00    -0.214 A  
HETATM   29  O25 ZMA A 505      -1.764  93.474  51.439  1.00  0.00    -0.472 OA 
ENDBRANCH  19  25
ENDBRANCH  11  13
ENDBRANCH  10  11
ENDBRANCH   9  10
ENDBRANCH   2   9
TORSDOF 5
ENDMDL
