MODEL        1
REMARK THIS MODEL IS IDENTICAL TO THE INPUT LIGAND AND NOT FROM DOCKING
REMARK 921   NORMALIZED FREE ENERGY PREDICTED BY IDOCK:   -9.58 KCAL/MOL
REMARK 922        TOTAL FREE ENERGY PREDICTED BY IDOCK:  -11.47 KCAL/MOL
REMARK 923 INTER-LIGAND FREE ENERGY PREDICTED BY IDOCK:  -11.26 KCAL/MOL
REMARK 924 INTRA-LIGAND FREE ENERGY PREDICTED BY IDOCK:   -0.21 KCAL/MOL
REMARK 927      BINDING AFFINITY PREDICTED BY RF-SCORE:    0.00 PKD
ROOT
HETATM    1  N1  9XT A1201     -24.351   8.628  11.401  1.00  0.00    -0.650 NA 
HETATM    2  H11 9XT A1201     -23.707   9.155  10.811  1.00  0.00     0.000 HD 
HETATM    3  C7  9XT A1201     -24.160   8.580  12.782  1.00  0.00    -0.473 A  
HETATM    4  H12 9XT A1201     -25.298   8.960  11.219  1.00  0.00     0.000 HD 
HETATM    5  C6  9XT A1201     -25.037   7.862  13.585  1.00  0.00    -0.799 A  
HETATM    6  C5  9XT A1201     -24.839   7.824  14.951  1.00  0.00    -0.660 A  
HETATM    7  C4  9XT A1201     -23.767   8.488  15.521  1.00  0.00    -0.546 A  
HETATM    8  C1  9XT A1201     -22.145  10.032  12.480  1.00  0.00    -0.741 C  
HETATM    9  C3  9XT A1201     -22.897   9.210  14.723  1.00  0.00    -0.495 A  
HETATM   10  C2  9XT A1201     -23.090   9.253  13.355  1.00  0.00    -0.489 A  
ENDROOT
BRANCH   7  11
HETATM   11  C8  9XT A1201     -23.563   8.441  17.013  1.00  0.00    -0.249 C  
BRANCH  11  12
HETATM   12  N2  9XT A1201     -22.817   7.264  17.479  1.00  0.00    -0.366 NA 
HETATM   13  N3  9XT A1201     -23.309   5.957  17.608  1.00  0.00    -0.352 NA 
HETATM   14  N4  9XT A1201     -22.381   5.187  18.064  1.00  0.00    -0.385 NA 
HETATM   15  C9  9XT A1201     -21.254   5.890  18.270  1.00  0.00    -0.471 A  
HETATM   16  C10 9XT A1201     -19.957   5.571  18.749  1.00  0.00    -0.481 A  
HETATM   17  C12 9XT A1201     -21.511   7.226  17.909  1.00  0.00    -0.361 A  
HETATM   18  N5  9XT A1201     -19.049   6.534  18.833  1.00  0.00    -0.673 NA 
HETATM   19  H72 9XT A1201     -17.519   8.414  18.075  1.00  0.00     0.000 HD 
HETATM   20  C11 9XT A1201     -19.338   7.772  18.482  1.00  0.00    -0.361 A  
HETATM   21  N6  9XT A1201     -20.532   8.120  18.035  1.00  0.00    -0.226 NA 
HETATM   22  H71 9XT A1201     -18.563   9.683  18.322  1.00  0.00     0.000 HD 
HETATM   23  N7  9XT A1201     -18.340   8.726  18.593  1.00  0.00     0.042 NA 
BRANCH  16  24
HETATM   24  C13 9XT A1201     -19.589   4.205  19.143  1.00  0.00    -0.248 A  
HETATM   25  C14 9XT A1201     -20.434   3.138  19.221  1.00  0.00    -0.623 A  
HETATM   26  C15 9XT A1201     -19.657   2.044  19.628  1.00  0.00    -0.620 A  
HETATM   27  C16 9XT A1201     -18.387   2.488  19.780  1.00  0.00    -0.460 A  
HETATM   28  O1  9XT A1201     -18.347   3.795  19.484  1.00  0.00    -0.576 OA 
ENDBRANCH  16  24
ENDBRANCH  11  12
ENDBRANCH   7  11
TORSDOF 3
ENDMDL
