REMARK  4 active torsions:
REMARK  status: ('A' for Active; 'I' for Inactive)
REMARK    1  A    between atoms: C2_2  and  C12_4
REMARK    2  A    between atoms: C8_10  and  C1_12
REMARK    3  A    between atoms: C1_12  and  C3_15
REMARK    4  A    between atoms: C3_15  and  N1_16
ROOT
HETATM    1  O2  68H A 601     -20.572 -13.388  28.719  1.00  0.00    -0.390 OA
HETATM    2  C2  68H A 601     -19.964 -12.828  27.554  1.00  0.00     0.193 C
HETATM    3  H2  68H A 601     -19.963 -13.612  29.412  1.00  0.00     0.210 HD
ENDROOT
BRANCH   2   4
HETATM    4  C12 68H A 601     -20.939 -12.470  26.445  1.00  0.00     0.008 A
HETATM    5  C11 68H A 601     -20.392 -11.674  25.316  1.00  0.00     0.078 A
HETATM    6  C10 68H A 601     -21.224 -11.312  24.262  1.00  0.00     0.033 A
HETATM    7  O1  68H A 601     -19.079 -11.306  25.297  1.00  0.00    -0.359 OA
HETATM    8  H1  68H A 601     -18.729 -10.797  24.575  1.00  0.00     0.217 HD
HETATM    9  C9  68H A 601     -22.558 -11.704  24.274  1.00  0.00     0.009 A
HETATM   10  C8  68H A 601     -23.107 -12.450  25.317  1.00  0.00    -0.017 A
HETATM   11  C13 68H A 601     -22.302 -12.838  26.409  1.00  0.00     0.014 A
BRANCH  10  12
HETATM   12  C1  68H A 601     -24.550 -12.790  25.203  1.00  0.00     0.158 C
HETATM   13  H3  68H A 601     -24.994 -11.251  24.107  1.00  0.00     0.210 HD
HETATM   14  O3  68H A 601     -25.139 -12.187  24.037  1.00  0.00    -0.386 OA
BRANCH  12  15
HETATM   15  C3  68H A 601     -24.783 -14.296  25.091  1.00  0.00     0.117 C
BRANCH  15  16
HETATM   16  N1  68H A 601     -26.208 -14.542  25.315  1.00  0.00    -0.309 NA
HETATM   17  C4  68H A 601     -26.818 -15.852  25.390  1.00  0.00     0.011 C
HETATM   18  H1  68H A 601     -26.816 -13.731  25.426  1.00  0.00     0.123 HD
HETATM   19  C6  68H A 601     -26.862 -16.273  26.856  1.00  0.00     0.027 C
HETATM   20  C5  68H A 601     -28.224 -15.773  24.808  1.00  0.00     0.027 C
HETATM   21  C7  68H A 601     -26.007 -16.852  24.567  1.00  0.00     0.027 C
ENDBRANCH  15  16
ENDBRANCH  12  15
ENDBRANCH  10  12
ENDBRANCH   2   4
TORSDOF 4
