REMARK  5 active torsions:
REMARK  status: ('A' for Active; 'I' for Inactive)
REMARK    1  A    between atoms: C10_1  and  N35_7
REMARK    2  A    between atoms: C13_6  and  N14_14
REMARK    3  A    between atoms: C08_4  and  C07_35
REMARK    4  A    between atoms: C16_16  and  C18_18
REMARK    5  A    between atoms: C18_18  and  C21_21
ROOT
HETATM    1  C10 GAW A1501       6.114  -4.569  25.768  1.00  0.00     0.110 A
HETATM    2  C09 GAW A1501       6.376  -4.700  27.190  1.00  0.00     0.050 A
HETATM    3  N11 GAW A1501       5.265  -3.553  25.438  1.00  0.00    -0.242 NA
HETATM    4  C08 GAW A1501       5.823  -3.859  28.218  1.00  0.00     0.005 A
HETATM    5  C12 GAW A1501       4.726  -2.750  26.381  1.00  0.00     0.133 A
HETATM    6  C13 GAW A1501       4.922  -2.813  27.801  1.00  0.00     0.051 A
ENDROOT
BRANCH   1   7
HETATM    7  N35 GAW A1501       6.712  -5.452  24.709  1.00  0.00    -0.256 NA
HETATM    8  C40 GAW A1501       6.268  -5.416  23.251  1.00  0.00     0.106 C
HETATM    9  C36 GAW A1501       7.138  -6.876  24.955  1.00  0.00     0.106 C
HETATM   10  N38 GAW A1501       5.561  -7.859  23.278  1.00  0.00    -0.303 NA
HETATM   11  C39 GAW A1501       6.208  -6.760  22.474  1.00  0.00     0.100 C
HETATM   12  C37 GAW A1501       6.051  -7.929  24.689  1.00  0.00     0.100 C
HETATM   13  C41 GAW A1501       4.111  -7.505  23.365  1.00  0.00     0.105 C
ENDBRANCH   1   7
BRANCH   6  14
HETATM   14  N14 GAW A1501       4.241  -1.803  28.666  1.00  0.00    -0.215 N
HETATM   15  O17 GAW A1501       6.030  -0.381  28.625  1.00  0.00    -0.278 OA
HETATM   16  C16 GAW A1501       4.896  -0.544  29.035  1.00  0.00     0.217 C
HETATM   17  C15 GAW A1501       2.872  -2.050  29.121  1.00  0.00     0.119 C
BRANCH  16  18
HETATM   18  C18 GAW A1501       4.331   0.703  29.911  1.00  0.00     0.064 C
HETATM   19  C19 GAW A1501       5.530   1.615  30.185  1.00  0.00     0.025 C
HETATM   20  C20 GAW A1501       3.266   1.423  29.029  1.00  0.00     0.025 C
BRANCH  18  21
HETATM   21  C21 GAW A1501       3.702   0.285  31.294  1.00  0.00    -0.032 A
HETATM   22  C22 GAW A1501       4.376  -0.513  32.224  1.00  0.00     0.017 A
HETATM   23  C24 GAW A1501       2.556  -0.474  33.829  1.00  0.00     0.024 A
HETATM   24  C31 GAW A1501       4.664  -1.783  34.458  1.00  0.00     0.417 C
HETATM   25  C23 GAW A1501       3.835  -0.884  33.456  1.00  0.00     0.056 A
HETATM   26  F33 GAW A1501       5.845  -2.150  33.984  1.00  0.00    -0.166 F
HETATM   27  C25 GAW A1501       1.850   0.326  32.926  1.00  0.00     0.056 A
HETATM   28  F32 GAW A1501       4.041  -2.887  34.728  1.00  0.00    -0.166 F
HETATM   29  F34 GAW A1501       4.941  -1.182  35.570  1.00  0.00    -0.166 F
HETATM   30  C27 GAW A1501       0.395   0.808  33.332  1.00  0.00     0.417 C
HETATM   31  C26 GAW A1501       2.413   0.691  31.691  1.00  0.00     0.017 A
HETATM   32  F28 GAW A1501       0.389   2.103  33.597  1.00  0.00    -0.166 F
HETATM   33  F29 GAW A1501      -0.057   0.210  34.386  1.00  0.00    -0.166 F
HETATM   34  F30 GAW A1501      -0.496   0.602  32.392  1.00  0.00    -0.166 F
ENDBRANCH  18  21
ENDBRANCH  16  18
ENDBRANCH   6  14
BRANCH   4  35
HETATM   35  C07 GAW A1501       6.161  -4.090  29.686  1.00  0.00    -0.013 A
HETATM   36  C06 GAW A1501       5.285  -4.782  30.538  1.00  0.00     0.009 A
HETATM   37  C02 GAW A1501       7.375  -3.642  30.285  1.00  0.00    -0.043 A
HETATM   38  C05 GAW A1501       5.541  -5.034  31.896  1.00  0.00     0.001 A
HETATM   39  C04 GAW A1501       6.728  -4.585  32.460  1.00  0.00     0.000 A
HETATM   40  C03 GAW A1501       7.631  -3.897  31.654  1.00  0.00     0.004 A
HETATM   41  C01 GAW A1501       8.414  -2.890  29.501  1.00  0.00     0.044 C
ENDBRANCH   4  35
TORSDOF 5
