REMARK  2 active torsions:
REMARK  status: ('A' for Active; 'I' for Inactive)
REMARK    1  A    between atoms: C6_3  and  C7_10
REMARK    2  A    between atoms: C5_5  and  C13_19
ROOT
HETATM    1  N2  T4E A1201     -20.301   8.216  17.337  1.00  0.00    -0.117 NA
HETATM    2  N1  T4E A1201     -21.216   7.384  17.046  1.00  0.00    -0.144 NA
HETATM    3  C6  T4E A1201     -21.221   6.054  17.423  1.00  0.00     0.119 A
HETATM    4  H32 T4E A1201     -18.609   9.530  18.864  1.00  0.00     0.127 HD
HETATM    5  C5  T4E A1201     -20.072   5.632  18.200  1.00  0.00     0.102 A
HETATM    6  H31 T4E A1201     -17.364   8.447  18.941  1.00  0.00     0.127 HD
HETATM    7  N3  T4E A1201     -18.179   8.731  18.397  1.00  0.00    -0.269 NA
HETATM    8  N4  T4E A1201     -19.077   6.525  18.516  1.00  0.00    -0.214 NA
HETATM    9  C3  T4E A1201     -19.179   7.825  18.086  1.00  0.00     0.220 A
ENDROOT
BRANCH   3  10
HETATM   10  C7  T4E A1201     -22.341   5.146  16.993  1.00  0.00     0.006 A
HETATM   11  C11 T4E A1201     -24.753   4.615  16.717  1.00  0.00     0.035 A
HETATM   12  H1  T4E A1201     -25.222   1.678  15.330  1.00  0.00     0.217 HD
HETATM   13  C10 T4E A1201     -24.450   3.359  16.126  1.00  0.00     0.091 A
HETATM   14 CL1  T4E A1201     -22.599   1.505  15.262  1.00  0.00    -0.081 Cl
HETATM   15  O1  T4E A1201     -25.425   2.518  15.725  1.00  0.00    -0.358 OA
HETATM   16  C12 T4E A1201     -23.705   5.497  17.138  1.00  0.00     0.013 A
HETATM   17  C9  T4E A1201     -23.115   3.052  15.985  1.00  0.00     0.071 A
HETATM   18  C8  T4E A1201     -22.092   3.896  16.376  1.00  0.00     0.032 A
ENDBRANCH   3  10
BRANCH   5  19
HETATM   19  C13 T4E A1201     -19.843   4.225  18.725  1.00  0.00     0.003 A
HETATM   20  C16 T4E A1201     -19.300   1.598  19.735  1.00  0.00     0.000 A
HETATM   21  C15 T4E A1201     -18.261   2.390  19.218  1.00  0.00     0.001 A
HETATM   22  C17 T4E A1201     -20.621   2.115  19.752  1.00  0.00     0.001 A
HETATM   23  C14 T4E A1201     -18.541   3.687  18.730  1.00  0.00     0.010 A
HETATM   24  C18 T4E A1201     -20.880   3.429  19.263  1.00  0.00     0.010 A
ENDBRANCH   5  19
TORSDOF 2
