REMARK  8 active torsions:
REMARK  status: ('A' for Active; 'I' for Inactive)
REMARK    1  A    between atoms: C2_2  and  C17_19
REMARK    2  A    between atoms: C17_19  and  C18_22
REMARK    3  A    between atoms: C18_22  and  C21_23
REMARK    4  A    between atoms: C21_23  and  C22_24
REMARK    5  A    between atoms: C22_24  and  C23_25
REMARK    6  A    between atoms: C23_25  and  C24_26
REMARK    7  A    between atoms: C24_26  and  C25_27
REMARK    8  A    between atoms: C11_17  and  C14_31
ROOT
HETATM    1  C1  8D0 A1202     -42.678-157.964 308.565  1.00  0.00     0.037 A
HETATM    2  C2  8D0 A1202     -42.185-157.808 307.250  1.00  0.00    -0.037 A
HETATM    3  C3  8D0 A1202     -41.225-158.728 306.787  1.00  0.00     0.037 A
HETATM    4  C6  8D0 A1202     -42.235-159.011 309.392  1.00  0.00     0.083 A
HETATM    5  C16 8D0 A1202     -43.037-159.836 312.927  1.00  0.00     0.042 C
HETATM    6  O1  8D0 A1202     -42.791-159.059 310.652  1.00  0.00    -0.338 OA
HETATM    7  C4  8D0 A1202     -40.767-159.781 307.599  1.00  0.00     0.079 A
HETATM    8  C15 8D0 A1202     -40.887-158.894 312.040  1.00  0.00     0.042 C
HETATM    9  C9  8D0 A1202     -42.113-159.763 311.692  1.00  0.00     0.074 C
HETATM   10  O3  8D0 A1202     -39.835-160.613 307.049  1.00  0.00    -0.359 OA
HETATM   11  C5  8D0 A1202     -41.266-159.937 308.922  1.00  0.00     0.016 A
HETATM   12  H3  8D0 A1202     -39.526-161.324 307.598  1.00  0.00     0.217 HD
HETATM   13  C7  8D0 A1202     -40.823-161.065 309.859  1.00  0.00     0.030 C
HETATM   14  C8  8D0 A1202     -41.720-161.149 311.119  1.00  0.00     0.029 C
HETATM   15  C10 8D0 A1202     -40.860-162.472 309.213  1.00  0.00     0.014 C
HETATM   16  C13 8D0 A1202     -41.128-162.161 312.122  1.00  0.00     0.007 C
HETATM   17  C11 8D0 A1202     -40.386-163.598 310.154  1.00  0.00     0.015 C
HETATM   18  C12 8D0 A1202     -41.153-163.564 311.492  1.00  0.00     0.006 C
ENDROOT
BRANCH   2  19
HETATM   19  C17 8D0 A1202     -42.646-156.676 306.315  1.00  0.00    -0.010 C
HETATM   20  C20 8D0 A1202     -43.035-155.439 307.155  1.00  0.00     0.016 C
HETATM   21  C19 8D0 A1202     -41.528-156.222 305.351  1.00  0.00     0.016 C
BRANCH  19  22
HETATM   22  C18 8D0 A1202     -43.870-157.135 305.473  1.00  0.00     0.011 C
BRANCH  22  23
HETATM   23  C21 8D0 A1202     -45.148-157.478 306.270  1.00  0.00     0.001 C
BRANCH  23  24
HETATM   24  C22 8D0 A1202     -46.437-157.247 305.470  1.00  0.00     0.000 C
BRANCH  24  25
HETATM   25  C23 8D0 A1202     -46.680-158.341 304.420  1.00  0.00     0.001 C
BRANCH  25  26
HETATM   26  C24 8D0 A1202     -48.121-158.874 304.455  1.00  0.00     0.015 C
BRANCH  26  27
HETATM   27  C25 8D0 A1202     -48.463-159.601 305.766  1.00  0.00     0.077 C
HETATM   28  H11 8D0 A1202     -50.110-160.092 306.865  1.00  0.00     0.118 HD
HETATM   29  N1  8D0 A1202     -49.883-159.610 305.995  1.00  0.00    -0.330 NA
HETATM   30  H12 8D0 A1202     -50.389-160.005 305.203  1.00  0.00     0.118 HD
ENDBRANCH  26  27
ENDBRANCH  25  26
ENDBRANCH  24  25
ENDBRANCH  23  24
ENDBRANCH  22  23
ENDBRANCH  19  22
ENDBRANCH   2  19
BRANCH  17  31
HETATM   31  C14 8D0 A1202     -40.513-164.953 309.434  1.00  0.00     0.159 C
HETATM   32  O2  8D0 A1202     -40.569-164.744 308.038  1.00  0.00    -0.395 OA
HETATM   33  H2  8D0 A1202     -40.647-165.580 307.594  1.00  0.00     0.209 HD
ENDBRANCH  17  31
TORSDOF 8
