MODEL        1
REMARK THIS MODEL IS IDENTICAL TO THE INPUT LIGAND AND NOT FROM DOCKING
REMARK 921   NORMALIZED FREE ENERGY PREDICTED BY IDOCK:   -6.08 KCAL/MOL
REMARK 922        TOTAL FREE ENERGY PREDICTED BY IDOCK:   -7.95 KCAL/MOL
REMARK 923 INTER-LIGAND FREE ENERGY PREDICTED BY IDOCK:   -7.86 KCAL/MOL
REMARK 924 INTRA-LIGAND FREE ENERGY PREDICTED BY IDOCK:   -0.09 KCAL/MOL
REMARK 927      BINDING AFFINITY PREDICTED BY RF-SCORE:    0.00 PKD
ROOT
HETATM    1  C01 IXO A 501      -7.631 -13.852  -4.183  1.00  0.00    -0.512 C  
HETATM    2  N02 IXO A 501      -7.292 -12.436  -4.216  1.00  0.00    -0.392 N  
HETATM    3  C04 IXO A 501      -5.835 -12.215  -3.837  1.00  0.00    -0.406 C  
HETATM    4  C03 IXO A 501      -7.521 -11.936  -5.544  1.00  0.00    -0.336 C  
ENDROOT
BRANCH   2   5
HETATM    5  C05 IXO A 501      -8.111 -11.752  -3.260  1.00  0.00    -0.545 C  
BRANCH   5   6
HETATM    6  C06 IXO A 501      -7.830 -10.306  -3.011  1.00  0.00    -0.729 C  
HETATM    7  C07 IXO A 501      -7.636  -9.059  -2.792  1.00  0.00    -0.774 C  
BRANCH   7   8
HETATM    8  C08 IXO A 501      -7.426  -7.524  -2.648  1.00  0.00    -0.642 C  
BRANCH   8   9
HETATM    9  O09 IXO A 501      -6.761  -7.063  -1.460  1.00  0.00    -0.605 OA 
BRANCH   9  10
HETATM   10  C10 IXO A 501      -5.615  -7.672  -1.028  1.00  0.00    -0.489 C  
HETATM   11  N11 IXO A 501      -4.735  -8.397  -1.851  1.00  0.00    -0.598 NA 
HETATM   12  O12 IXO A 501      -3.707  -8.845  -1.070  1.00  0.00    -0.308 OA 
HETATM   13  C13 IXO A 501      -3.788  -8.166   0.188  1.00  0.00    -0.640 C  
HETATM   14  C14 IXO A 501      -5.141  -7.656   0.285  1.00  0.00    -0.885 C  
ENDBRANCH   9  10
ENDBRANCH   8   9
ENDBRANCH   7   8
ENDBRANCH   5   6
ENDBRANCH   2   5
TORSDOF 5
ENDMDL
