REMARK 13 active torsions:
REMARK  status: ('A' for Active; 'I' for Inactive)
REMARK    1  A    between atoms: C3_6  and  C5_10
REMARK    2  A    between atoms: N2_12  and  C6_14
REMARK    3  A    between atoms: C4_8  and  N1_16
REMARK    4  A    between atoms: C12_19  and  C27_25
REMARK    5  A    between atoms: N7_28  and  C28_29
REMARK    6  A    between atoms: C11_22  and  N6_49
REMARK    7  A    between atoms: N6_49  and  C13_51
REMARK    8  A    between atoms: C28_29  and  C29_30
REMARK    9  A    between atoms: C29_30  and  N8_31
REMARK   10  A    between atoms: N8_31  and  C30_33
REMARK   11  A    between atoms: C30_33  and  N9_35
REMARK   12  A    between atoms: N9_35  and  C31_37
REMARK   13  A    between atoms: N10_39  and  C40_43
ROOT
HETATM    1  C1  UKA A1201      -6.184 -11.592  49.267  1.00  0.00     0.190 C
HETATM    2  O3  UKA A1201      -6.232 -12.923  48.764  1.00  0.00    -0.385 OA
HETATM    3  C2  UKA A1201      -5.809 -10.577  48.187  1.00  0.00     0.184 C
HETATM    4  O2  UKA A1201      -6.398 -10.893  46.930  1.00  0.00    -0.386 OA
HETATM    5  H3  UKA A1201      -6.465 -13.554  49.435  1.00  0.00     0.210 HD
HETATM    6  C3  UKA A1201      -4.284 -10.735  48.130  1.00  0.00     0.233 C
HETATM    7  H2  UKA A1201      -6.165 -10.262  46.259  1.00  0.00     0.210 HD
HETATM    8  C4  UKA A1201      -5.015 -11.432  50.236  1.00  0.00     0.232 C
HETATM    9  O1  UKA A1201      -3.877 -11.145  49.445  1.00  0.00    -0.343 OA
ENDROOT
BRANCH   6  10
HETATM   10  C5  UKA A1201      -3.676  -9.387  47.768  1.00  0.00     0.232 C
HETATM   11  O4  UKA A1201      -4.160  -8.340  48.191  1.00  0.00    -0.277 OA
HETATM   12  N2  UKA A1201      -2.596  -9.434  46.989  1.00  0.00    -0.256 N
HETATM   13  H2  UKA A1201      -2.286 -10.347  46.656  1.00  0.00     0.130 HD
BRANCH  12  14
HETATM   14  C6  UKA A1201      -1.828  -8.262  46.582  1.00  0.00     0.086 C
HETATM   15  C7  UKA A1201      -2.645  -7.313  45.777  1.00  0.00     0.020 C
ENDBRANCH  12  14
ENDBRANCH   6  10
BRANCH   8  16
HETATM   16  N1  UKA A1201      -5.186 -10.353  51.205  1.00  0.00    -0.187 NA
HETATM   17  C10 UKA A1201      -5.715 -10.445  52.467  1.00  0.00     0.148 A
HETATM   18  N5  UKA A1201      -6.183 -11.536  53.077  1.00  0.00    -0.209 NA
HETATM   19  C12 UKA A1201      -6.615 -11.307  54.321  1.00  0.00     0.215 A
HETATM   20  C8  UKA A1201      -4.839  -9.037  51.043  1.00  0.00     0.177 A
HETATM   21  N4  UKA A1201      -6.584 -10.122  54.949  1.00  0.00    -0.210 NA
HETATM   22  C11 UKA A1201      -6.118  -9.024  54.322  1.00  0.00     0.138 A
HETATM   23  N3  UKA A1201      -5.097  -8.287  52.086  1.00  0.00    -0.237 NA
HETATM   24  C9  UKA A1201      -5.654  -9.171  52.999  1.00  0.00     0.138 A
BRANCH  19  25
HETATM   25  C27 UKA A1201      -7.246 -12.514  54.987  1.00  0.00     0.269 C
HETATM   26  O5  UKA A1201      -7.275 -13.600  54.415  1.00  0.00    -0.271 OA
HETATM   27  H7  UKA A1201      -7.575 -11.444  56.685  1.00  0.00     0.131 HD
HETATM   28  N7  UKA A1201      -7.774 -12.317  56.197  1.00  0.00    -0.250 N
BRANCH  28  29
HETATM   29  C28 UKA A1201      -8.624 -13.306  56.844  1.00  0.00     0.105 C
BRANCH  29  30
HETATM   30  C29 UKA A1201      -8.063 -13.721  58.187  1.00  0.00     0.106 C
BRANCH  30  31
HETATM   31  N8  UKA A1201      -8.045 -12.612  59.129  1.00  0.00    -0.243 N
HETATM   32  H8  UKA A1201      -7.167 -12.125  59.307  1.00  0.00     0.132 HD
BRANCH  31  33
HETATM   33  C30 UKA A1201      -9.159 -12.213  59.772  1.00  0.00     0.273 C
HETATM   34  O6  UKA A1201     -10.270 -12.663  59.509  1.00  0.00    -0.261 OA
BRANCH  33  35
HETATM   35  N9  UKA A1201      -8.953 -11.280  60.728  1.00  0.00    -0.241 N
HETATM   36  H9  UKA A1201      -8.004 -10.940  60.884  1.00  0.00     0.132 HD
BRANCH  35  37
HETATM   37  C31 UKA A1201     -10.035 -10.741  61.545  1.00  0.00     0.065 C
HETATM   38  C32 UKA A1201     -10.861  -9.740  60.762  1.00  0.00     0.035 C
HETATM   39  N10 UKA A1201     -11.398  -8.552  62.851  1.00  0.00    -0.259 NA
HETATM   40  C33 UKA A1201     -11.960  -9.164  61.643  1.00  0.00     0.093 C
HETATM   41  C35 UKA A1201      -9.487 -10.108  62.809  1.00  0.00     0.035 C
HETATM   42  C34 UKA A1201     -10.621  -9.518  63.636  1.00  0.00     0.093 C
BRANCH  39  43
HETATM   43  C40 UKA A1201     -11.235  -7.191  62.987  1.00  0.00     0.109 A
HETATM   44  N11 UKA A1201     -10.557  -6.779  64.067  1.00  0.00    -0.244 NA
HETATM   45  C39 UKA A1201     -10.406  -5.459  64.238  1.00  0.00     0.112 A
HETATM   46  C38 UKA A1201     -10.902  -4.514  63.370  1.00  0.00     0.020 A
HETATM   47  C37 UKA A1201     -11.591  -4.951  62.265  1.00  0.00     0.005 A
HETATM   48  C36 UKA A1201     -11.771  -6.305  62.051  1.00  0.00     0.040 A
ENDBRANCH  39  43
ENDBRANCH  35  37
ENDBRANCH  33  35
ENDBRANCH  31  33
ENDBRANCH  30  31
ENDBRANCH  29  30
ENDBRANCH  28  29
ENDBRANCH  19  25
BRANCH  22  49
HETATM   49  N6  UKA A1201      -6.094  -7.847  54.966  1.00  0.00    -0.270 NA
HETATM   50  H6  UKA A1201      -6.083  -6.995  54.405  1.00  0.00     0.129 HD
BRANCH  49  51
HETATM   51  C13 UKA A1201      -6.083  -7.711  56.415  1.00  0.00     0.100 C
HETATM   52  C26 UKA A1201      -7.711  -6.182  58.496  1.00  0.00     0.004 A
HETATM   53  C14 UKA A1201      -7.198  -8.331  57.260  1.00  0.00     0.063 C
HETATM   54  C23 UKA A1201      -7.638  -7.455  60.938  1.00  0.00     0.000 A
HETATM   55  C25 UKA A1201      -7.964  -5.475  59.658  1.00  0.00     0.000 A
HETATM   56  C15 UKA A1201      -8.519  -8.569  56.541  1.00  0.00    -0.039 A
HETATM   57  C18 UKA A1201     -10.498  -9.903  56.227  1.00  0.00     0.000 A
HETATM   58  C16 UKA A1201      -7.423  -7.539  58.542  1.00  0.00    -0.039 A
HETATM   59  C17 UKA A1201      -9.302  -9.664  56.878  1.00  0.00     0.004 A
HETATM   60  C20 UKA A1201     -10.167  -7.955  54.898  1.00  0.00     0.000 A
HETATM   61  C24 UKA A1201      -7.929  -6.111  60.878  1.00  0.00     0.000 A
HETATM   62  C22 UKA A1201      -7.385  -8.167  59.779  1.00  0.00     0.004 A
HETATM   63  C21 UKA A1201      -8.970  -7.713  55.547  1.00  0.00     0.004 A
HETATM   64  C19 UKA A1201     -10.930  -9.052  55.235  1.00  0.00     0.000 A
ENDBRANCH  49  51
ENDBRANCH  22  49
ENDBRANCH   8  16
TORSDOF 13
