MODEL        1
REMARK THIS MODEL IS IDENTICAL TO THE INPUT LIGAND AND NOT FROM DOCKING
REMARK 921   NORMALIZED FREE ENERGY PREDICTED BY IDOCK:   -7.43 KCAL/MOL
REMARK 922        TOTAL FREE ENERGY PREDICTED BY IDOCK:   -8.57 KCAL/MOL
REMARK 923 INTER-LIGAND FREE ENERGY PREDICTED BY IDOCK:   -9.17 KCAL/MOL
REMARK 924 INTRA-LIGAND FREE ENERGY PREDICTED BY IDOCK:    0.59 KCAL/MOL
REMARK 927      BINDING AFFINITY PREDICTED BY RF-SCORE:    0.00 PKD
ROOT
HETATM    1  C13 D7W A4006     -24.730  14.989  40.542  1.00  0.00    -0.712 A  
HETATM    2  C12 D7W A4006     -24.672  14.271  41.769  1.00  0.00    -0.586 A  
HETATM    3  C14 D7W A4006     -25.418  14.466  39.434  1.00  0.00    -0.579 A  
HETATM    4  C17 D7W A4006     -25.329  13.015  41.805  1.00  0.00    -0.754 A  
HETATM    5 CL1  D7W A4006     -25.470  15.418  37.894  1.00  0.00    -0.782 Cl 
HETATM    6  C15 D7W A4006     -26.068  13.231  39.465  1.00  0.00    -0.795 A  
HETATM    7  C16 D7W A4006     -26.013  12.512  40.675  1.00  0.00    -0.317 A  
ENDROOT
BRANCH   2   8
HETATM    8  N11 D7W A4006     -23.944  14.806  42.973  1.00  0.00    -0.209 N  
HETATM    9  H11 D7W A4006     -23.404  14.151  43.538  1.00  0.00     0.000 HD 
BRANCH   8  10
HETATM   10  C09 D7W A4006     -23.967  16.210  43.378  1.00  0.00    -0.558 C  
HETATM   11  O10 D7W A4006     -24.624  16.967  42.688  1.00  0.00    -0.437 OA 
BRANCH  10  12
HETATM   12  N08 D7W A4006     -23.273  16.819  44.549  1.00  0.00    -0.510 N  
HETATM   13  H08 D7W A4006     -22.718  16.207  45.146  1.00  0.00     0.000 HD 
BRANCH  12  14
HETATM   14  C07 D7W A4006     -23.338  18.247  44.898  1.00  0.00    -0.419 C  
HETATM   15  N06 D7W A4006     -24.035  19.205  44.198  1.00  0.00    -0.473 NA 
HETATM   16  C04 D7W A4006     -23.881  20.515  44.816  1.00  0.00    -0.585 C  
HETATM   17  O05 D7W A4006     -24.358  21.582  44.465  1.00  0.00    -0.587 OA 
HETATM   18  C03 D7W A4006     -22.977  20.307  46.033  1.00  0.00     0.025 C  
HETATM   19  N02 D7W A4006     -22.661  18.849  46.038  1.00  0.00    -0.430 NA 
HETATM   20  C01 D7W A4006     -21.801  18.265  47.081  1.00  0.00    -0.460 C  
ENDBRANCH  12  14
ENDBRANCH  10  12
ENDBRANCH   8  10
ENDBRANCH   2   8
TORSDOF 4
ENDMDL
