REMARK  2 active torsions:
REMARK  status: ('A' for Active; 'I' for Inactive)
REMARK    1  A    between atoms: C3_11  and  C12_17
REMARK    2  A    between atoms: C12_17  and  C14_18
ROOT
HETATM    1  C10 DLH A 412    -233.947  47.313  36.380  1.00  0.00     0.098 C
HETATM    2  C8  DLH A 412    -234.370  48.303  35.290  1.00  0.00     0.081 C
HETATM    3  C1  DLH A 412    -235.876  48.206  35.160  1.00  0.00     0.184 C
HETATM    4  C9  DLH A 412    -236.270  46.837  34.624  1.00  0.00     0.081 C
HETATM    5  O4  DLH A 412    -236.392  48.435  36.468  1.00  0.00    -0.310 OA
HETATM    6  C11 DLH A 412    -235.738  45.768  35.591  1.00  0.00     0.098 C
HETATM    7  C7  DLH A 412    -237.096  49.601  36.401  1.00  0.00     0.110 A
HETATM    8  C21 DLH A 412    -237.763  50.239  37.409  1.00  0.00     0.035 A
HETATM    9  N2  DLH A 412    -234.306  45.932  36.002  1.00  0.00    -0.244 N
HETATM   10  C24 DLH A 412    -238.406  51.427  37.039  1.00  0.00     0.003 A
HETATM   11  C3  DLH A 412    -233.272  45.102  35.471  1.00  0.00     0.208 C
HETATM   12  C23 DLH A 412    -238.378  51.919  35.746  1.00  0.00     0.003 A
HETATM   13  O13 DLH A 412    -232.196  45.597  35.156  1.00  0.00    -0.279 OA
HETATM   14  C6  DLH A 412    -237.060  50.098  35.083  1.00  0.00     0.110 A
HETATM   15  O5  DLH A 412    -236.325  49.250  34.299  1.00  0.00    -0.310 OA
HETATM   16  C22 DLH A 412    -237.692  51.257  34.720  1.00  0.00     0.035 A
ENDROOT
BRANCH  11  17
HETATM   17  C12 DLH A 412    -233.508  43.601  35.299  1.00  0.00     0.127 C
BRANCH  17  18
HETATM   18  C14 DLH A 412    -234.354  43.022  36.388  1.00  0.00    -0.039 A
HETATM   19  C17 DLH A 412    -235.511  42.344  36.017  1.00  0.00     0.005 A
HETATM   20  C19 DLH A 412    -236.337  41.791  36.981  1.00  0.00     0.020 A
HETATM   21  C15 DLH A 412    -235.977  41.938  38.307  1.00  0.00     0.041 A
HETATM   22  C20 DLH A 412    -234.832  42.611  38.708  1.00  0.00     0.020 A
HETATM   23 CL   DLH A 412    -237.002  41.251  39.508  1.00  0.00    -0.084 Cl
HETATM   24  C18 DLH A 412    -234.010  43.162  37.729  1.00  0.00     0.005 A
ENDBRANCH  17  18
ENDBRANCH  11  17
TORSDOF 2
