MODEL        1
REMARK THIS MODEL IS IDENTICAL TO THE INPUT LIGAND AND NOT FROM DOCKING
REMARK 921   NORMALIZED FREE ENERGY PREDICTED BY IDOCK:  -11.51 KCAL/MOL
REMARK 922        TOTAL FREE ENERGY PREDICTED BY IDOCK:  -14.45 KCAL/MOL
REMARK 923 INTER-LIGAND FREE ENERGY PREDICTED BY IDOCK:  -14.20 KCAL/MOL
REMARK 924 INTRA-LIGAND FREE ENERGY PREDICTED BY IDOCK:   -0.25 KCAL/MOL
REMARK 927      BINDING AFFINITY PREDICTED BY RF-SCORE:    0.00 PKD
ROOT
HETATM    1  C01 8NU A2001       5.798   4.520 -12.898  1.00  0.00    -0.720 C  
HETATM    2  C02 8NU A2001       7.144   4.033 -13.365  1.00  0.00    -0.351 A  
HETATM    3  C03 8NU A2001       8.262   4.600 -12.909  1.00  0.00    -0.472 A  
HETATM    4  C22 8NU A2001       9.544   4.089 -13.391  1.00  0.00    -0.341 A  
HETATM    5  C27 8NU A2001       9.633   0.613 -15.771  1.00  0.00    -0.422 C  
HETATM    6  C28 8NU A2001       8.257   1.284 -15.641  1.00  0.00    -0.274 C  
HETATM    7  N24 8NU A2001       9.552   3.033 -14.306  1.00  0.00    -0.285 NA 
HETATM    8  O23 8NU A2001      10.714   4.653 -12.983  1.00  0.00    -0.204 OA 
HETATM    9  C29 8NU A2001       8.311   2.465 -14.703  1.00  0.00    -0.302 A  
HETATM   10  C25 8NU A2001      10.828   2.550 -14.812  1.00  0.00    -0.323 C  
HETATM   11  H23 8NU A2001      11.547   4.321 -13.296  1.00  0.00     0.000 HD 
HETATM   12  C26 8NU A2001      10.659   1.689 -16.072  1.00  0.00    -0.496 C  
HETATM   13  N30 8NU A2001       7.209   2.946 -14.270  1.00  0.00    -0.308 NA 
ENDROOT
BRANCH   3  14
HETATM   14  C04 8NU A2001       8.206   5.746 -11.897  1.00  0.00    -0.442 C  
BRANCH  14  15
HETATM   15  C05 8NU A2001       8.798   5.236 -10.556  1.00  0.00    -0.423 C  
BRANCH  15  16
HETATM   16  N06 8NU A2001       8.882   6.272  -9.486  1.00  0.00    -0.521 NA 
HETATM   17  C09 8NU A2001      10.598   7.582  -7.553  1.00  0.00    -0.533 C  
HETATM   18  C11 8NU A2001       9.363   5.565  -8.280  1.00  0.00    -0.354 C  
HETATM   19  C07 8NU A2001       9.857   7.323  -9.903  1.00  0.00    -0.144 C  
HETATM   20  C10 8NU A2001       9.569   6.528  -7.120  1.00  0.00    -0.453 C  
HETATM   21  C08 8NU A2001      10.085   8.347  -8.777  1.00  0.00    -0.339 C  
BRANCH  17  22
HETATM   22  C12 8NU A2001      10.978   8.513  -6.434  1.00  0.00    -0.406 A  
HETATM   23  C16 8NU A2001      11.346   8.184  -5.148  1.00  0.00    -0.592 A  
HETATM   24  C17 8NU A2001      11.480   6.976  -4.482  1.00  0.00    -0.955 A  
HETATM   25  C18 8NU A2001      11.893   7.042  -3.152  1.00  0.00    -1.047 A  
HETATM   26  C19 8NU A2001      12.158   8.271  -2.538  1.00  0.00    -0.555 A  
HETATM   27  F20 8NU A2001      12.555   8.290  -1.257  1.00  0.00    -0.721 F  
HETATM   28  C21 8NU A2001      12.017   9.471  -3.239  1.00  0.00    -0.740 A  
HETATM   29  C15 8NU A2001      11.604   9.387  -4.561  1.00  0.00    -0.505 A  
HETATM   30  O14 8NU A2001      11.404  10.328  -5.431  1.00  0.00    -0.452 OA 
HETATM   31  N13 8NU A2001      11.047   9.842  -6.521  1.00  0.00    -0.526 NA 
ENDBRANCH  17  22
ENDBRANCH  15  16
ENDBRANCH  14  15
ENDBRANCH   3  14
TORSDOF 4
ENDMDL
