MODEL        1
REMARK THIS MODEL IS IDENTICAL TO THE INPUT LIGAND AND NOT FROM DOCKING
REMARK 921   NORMALIZED FREE ENERGY PREDICTED BY IDOCK:  -10.48 KCAL/MOL
REMARK 922        TOTAL FREE ENERGY PREDICTED BY IDOCK:  -14.58 KCAL/MOL
REMARK 923 INTER-LIGAND FREE ENERGY PREDICTED BY IDOCK:  -13.54 KCAL/MOL
REMARK 924 INTRA-LIGAND FREE ENERGY PREDICTED BY IDOCK:   -1.04 KCAL/MOL
REMARK 927      BINDING AFFINITY PREDICTED BY RF-SCORE:    0.00 PKD
ROOT
HETATM    1  C10 E2J A1201      39.372  36.092  61.609  1.00  0.00    -0.396 C  
HETATM    2  N11 E2J A1201      38.390  36.423  60.816  1.00  0.00    -0.429 NA 
HETATM    3  C02 E2J A1201      37.816  35.532  60.025  1.00  0.00    -0.351 C  
HETATM    4  C03 E2J A1201      38.274  34.229  60.050  1.00  0.00    -0.464 C  
HETATM    5  C01 E2J A1201      36.683  35.965  59.133  1.00  0.00    -0.516 C  
HETATM    6  C08 E2J A1201      41.387  35.688  63.316  1.00  0.00    -0.141 C  
HETATM    7  C04 E2J A1201      39.327  33.877  60.895  1.00  0.00    -0.328 C  
HETATM    8  N06 E2J A1201      39.895  34.829  61.701  1.00  0.00    -0.321 N  
HETATM    9  C07 E2J A1201      40.931  34.664  62.592  1.00  0.00    -0.324 C  
HETATM   10  O05 E2J A1201      39.731  32.723  60.911  1.00  0.00    -0.294 OA 
HETATM   11  S09 E2J A1201      40.338  37.028  62.769  1.00  0.00     0.468 SA 
ENDROOT
BRANCH   4  12
HETATM   12  C12 E2J A1201      37.658  33.183  59.160  1.00  0.00    -0.256 C  
BRANCH  12  13
HETATM   13  C13 E2J A1201      38.532  33.077  57.911  1.00  0.00    -0.280 C  
BRANCH  13  14
HETATM   14  N14 E2J A1201      37.959  32.097  56.983  1.00  0.00    -0.212 NA 
HETATM   15  C16 E2J A1201      37.717  31.434  54.636  1.00  0.00    -0.354 C  
HETATM   16  C15 E2J A1201      38.440  32.363  55.619  1.00  0.00    -0.379 C  
HETATM   17  C17 E2J A1201      37.932  30.008  55.107  1.00  0.00    -0.372 C  
HETATM   18  C18 E2J A1201      38.463  29.023  54.352  1.00  0.00    -0.425 C  
HETATM   19  C33 E2J A1201      37.583  29.742  56.557  1.00  0.00    -0.390 C  
HETATM   20  C34 E2J A1201      38.358  30.749  57.408  1.00  0.00    -0.351 C  
BRANCH  18  21
HETATM   21  C26 E2J A1201      38.982  29.200  52.965  1.00  0.00    -0.499 A  
HETATM   22  C27 E2J A1201      38.475  28.393  51.947  1.00  0.00    -0.598 A  
HETATM   23  C31 E2J A1201      39.995  30.113  52.664  1.00  0.00    -0.544 A  
HETATM   24  C28 E2J A1201      38.951  28.514  50.657  1.00  0.00    -0.308 A  
HETATM   25  C30 E2J A1201      40.463  30.233  51.371  1.00  0.00    -0.972 A  
HETATM   26  F32 E2J A1201      40.405  29.550  49.099  1.00  0.00    -0.747 F  
HETATM   27  C29 E2J A1201      39.944  29.434  50.364  1.00  0.00    -0.456 A  
ENDBRANCH  18  21
BRANCH  18  28
HETATM   28  C19 E2J A1201      38.551  27.657  54.936  1.00  0.00    -0.469 A  
HETATM   29  F25 E2J A1201      38.747  23.857  56.524  1.00  0.00    -0.138 F  
HETATM   30  C21 E2J A1201      39.743  25.984  56.183  1.00  0.00    -0.429 A  
HETATM   31  C23 E2J A1201      37.565  25.491  55.290  1.00  0.00    -0.624 A  
HETATM   32  C20 E2J A1201      39.683  27.256  55.651  1.00  0.00    -0.530 A  
HETATM   33  C22 E2J A1201      38.687  25.101  56.003  1.00  0.00    -0.492 A  
HETATM   34  C24 E2J A1201      37.496  26.761  54.755  1.00  0.00    -0.619 A  
ENDBRANCH  18  28
ENDBRANCH  13  14
ENDBRANCH  12  13
ENDBRANCH   4  12
TORSDOF 5
ENDMDL
