MODEL        1
REMARK THIS MODEL IS IDENTICAL TO THE INPUT LIGAND AND NOT FROM DOCKING
REMARK 921   NORMALIZED FREE ENERGY PREDICTED BY IDOCK:   -8.57 KCAL/MOL
REMARK 922        TOTAL FREE ENERGY PREDICTED BY IDOCK:  -14.07 KCAL/MOL
REMARK 923 INTER-LIGAND FREE ENERGY PREDICTED BY IDOCK:  -13.08 KCAL/MOL
REMARK 924 INTRA-LIGAND FREE ENERGY PREDICTED BY IDOCK:   -1.00 KCAL/MOL
REMARK 927      BINDING AFFINITY PREDICTED BY RF-SCORE:    0.00 PKD
ROOT
HETATM    1  C10 7MA A2001      36.647  38.372 -49.989  1.00  0.00    -0.664 A  
HETATM    2  C05 7MA A2001      37.642  38.481 -50.931  1.00  0.00    -0.611 A  
HETATM    3  C08 7MA A2001      38.089  39.209 -48.286  1.00  0.00    -0.485 A  
HETATM    4  C06 7MA A2001      38.894  38.975 -50.575  1.00  0.00    -0.333 A  
HETATM    5  N07 7MA A2001      39.108  39.313 -49.222  1.00  0.00    -0.398 NA 
HETATM    6  C09 7MA A2001      36.862  38.720 -48.673  1.00  0.00    -0.635 A  
ENDROOT
BRANCH   2   7
HETATM    7  C04 7MA A2001      37.316  38.060 -52.258  1.00  0.00    -0.424 C  
BRANCH   7   8
HETATM    8  N03 7MA A2001      38.464  38.007 -53.173  1.00  0.00    -0.304 N  
HETATM    9  C11 7MA A2001      38.674  39.052 -54.013  1.00  0.00    -0.273 C  
HETATM   10  O12 7MA A2001      37.946  40.031 -54.026  1.00  0.00    -0.346 OA 
BRANCH   8  11
HETATM   11  C02 7MA A2001      39.326  36.799 -53.056  1.00  0.00    -0.399 C  
HETATM   12  C01 7MA A2001      38.767  35.604 -53.849  1.00  0.00    -0.765 C  
ENDBRANCH   8  11
BRANCH   9  13
HETATM   13  C13 7MA A2001      39.797  39.024 -55.048  1.00  0.00    -0.258 C  
BRANCH  13  14
HETATM   14  N14 7MA A2001      41.060  39.410 -54.479  1.00  0.00    -0.257 N  
BRANCH  14  15
HETATM   15  C15 7MA A2001      41.322  40.700 -54.085  1.00  0.00    -0.252 A  
HETATM   16  C18 7MA A2001      41.984  43.078 -52.766  1.00  0.00    -0.395 A  
HETATM   17  C20 7MA A2001      41.489  41.853 -54.868  1.00  0.00    -0.318 A  
HETATM   18  C16 7MA A2001      41.502  40.800 -52.708  1.00  0.00    -0.323 A  
HETATM   19  C19 7MA A2001      41.834  43.052 -54.188  1.00  0.00    -0.204 A  
HETATM   20  N17 7MA A2001      41.828  41.952 -52.057  1.00  0.00    -0.347 NA 
BRANCH  16  21
HETATM   21  O21 7MA A2001      42.312  44.204 -52.063  1.00  0.00    -0.490 OA 
HETATM   22  C22 7MA A2001      42.269  44.122 -50.639  1.00  0.00    -0.584 C  
ENDBRANCH  16  21
ENDBRANCH  14  15
BRANCH  14  23
HETATM   23  S23 7MA A2001      42.518  38.577 -55.336  1.00  0.00    -0.305 S  
HETATM   24  O25 7MA A2001      43.385  37.974 -54.227  1.00  0.00    -0.316 OA 
HETATM   25  O24 7MA A2001      41.967  37.474 -56.298  1.00  0.00    -0.332 OA 
BRANCH  23  26
HETATM   26  C26 7MA A2001      43.476  39.737 -56.342  1.00  0.00    -0.354 A  
HETATM   27  C30 7MA A2001      45.141  41.461 -56.659  1.00  0.00    -0.458 A  
HETATM   28  C31 7MA A2001      44.469  40.583 -55.812  1.00  0.00    -0.442 A  
HETATM   29  C29 7MA A2001      44.826  41.497 -58.015  1.00  0.00    -0.489 A  
HETATM   30  C27 7MA A2001      43.160  39.783 -57.696  1.00  0.00    -0.391 A  
HETATM   31  C32 7MA A2001      44.819  40.576 -54.448  1.00  0.00    -0.603 C  
HETATM   32  C28 7MA A2001      43.835  40.661 -58.527  1.00  0.00    -0.325 A  
ENDBRANCH  23  26
ENDBRANCH  14  23
ENDBRANCH  13  14
ENDBRANCH   9  13
ENDBRANCH   7   8
ENDBRANCH   2   7
TORSDOF 9
ENDMDL
