MODEL        1
REMARK THIS MODEL IS IDENTICAL TO THE INPUT LIGAND AND NOT FROM DOCKING
REMARK 921   NORMALIZED FREE ENERGY PREDICTED BY IDOCK:   -8.56 KCAL/MOL
REMARK 922        TOTAL FREE ENERGY PREDICTED BY IDOCK:  -13.29 KCAL/MOL
REMARK 923 INTER-LIGAND FREE ENERGY PREDICTED BY IDOCK:  -13.06 KCAL/MOL
REMARK 924 INTRA-LIGAND FREE ENERGY PREDICTED BY IDOCK:   -0.23 KCAL/MOL
REMARK 927      BINDING AFFINITY PREDICTED BY RF-SCORE:    0.00 PKD
ROOT
HETATM    1  O4  ML5 A1201       3.019  17.282 -14.222  1.00  0.00    -0.804 OA 
HETATM    2  P1  ML5 A1201       3.207  15.798 -14.426  1.00  0.00    -0.195 P  
HETATM    3  C16 ML5 A1201       3.896  15.175 -12.864  1.00  0.00    -0.328 C  
HETATM    4  O2  ML5 A1201       1.909  15.040 -14.614  1.00  0.00    -0.468 OA 
HETATM    5  O3  ML5 A1201       4.263  15.465 -15.454  1.00  0.00    -0.662 OA 
ENDROOT
BRANCH   3   6
HETATM    6  C15 ML5 A1201       4.171  16.309 -11.872  1.00  0.00    -0.462 C  
BRANCH   6   7
HETATM    7  C14 ML5 A1201       3.182  16.358 -10.701  1.00  0.00    -0.199 C  
HETATM    8  H21 ML5 A1201       1.377  15.452 -10.092  1.00  0.00     0.000 HD 
HETATM    9  N2  ML5 A1201       2.035  15.419 -10.871  1.00  0.00    -0.792 NA 
HETATM   10  H22 ML5 A1201       2.364  14.467 -11.031  1.00  0.00     0.000 HD 
BRANCH   7  11
HETATM   11  C13 ML5 A1201       3.886  16.134  -9.393  1.00  0.00    -0.532 C  
HETATM   12  O1  ML5 A1201       4.276  15.017  -9.107  1.00  0.00    -0.253 OA 
HETATM   13  N1  ML5 A1201       3.996  17.198  -8.589  1.00  0.00    -0.471 N  
HETATM   14  H1  ML5 A1201       3.386  17.994  -8.775  1.00  0.00     0.000 HD 
BRANCH  13  15
HETATM   15  C5  ML5 A1201       4.858  17.299  -7.543  1.00  0.00    -0.387 A  
HETATM   16  C4  ML5 A1201       4.961  16.286  -6.581  1.00  0.00    -0.662 A  
HETATM   17  C3  ML5 A1201       5.834  16.428  -5.501  1.00  0.00    -0.625 A  
HETATM   18  C2  ML5 A1201       6.569  17.606  -5.342  1.00  0.00    -0.642 A  
HETATM   19  C1  ML5 A1201       6.458  18.630  -6.286  1.00  0.00    -0.486 A  
HETATM   20  C6  ML5 A1201       5.587  18.481  -7.371  1.00  0.00    -0.467 A  
BRANCH  19  21
HETATM   21  C7  ML5 A1201       7.240  19.917  -6.118  1.00  0.00    -0.581 C  
BRANCH  21  22
HETATM   22  C8  ML5 A1201       8.718  19.634  -5.864  1.00  0.00    -0.725 C  
BRANCH  22  23
HETATM   23  C9  ML5 A1201       9.456  20.907  -5.460  1.00  0.00    -0.928 C  
BRANCH  23  24
HETATM   24  C10 ML5 A1201      10.948  20.785  -5.743  1.00  0.00    -0.833 C  
BRANCH  24  25
HETATM   25  C11 ML5 A1201      11.639  22.139  -5.641  1.00  0.00    -0.671 C  
HETATM   26  C12 ML5 A1201      13.109  22.044  -5.986  1.00  0.00    -0.886 C  
ENDBRANCH  24  25
ENDBRANCH  23  24
ENDBRANCH  22  23
ENDBRANCH  21  22
ENDBRANCH  19  21
ENDBRANCH  13  15
ENDBRANCH   7  11
ENDBRANCH   6   7
ENDBRANCH   3   6
TORSDOF 9
ENDMDL
