MODEL        1
REMARK THIS MODEL IS IDENTICAL TO THE INPUT LIGAND AND NOT FROM DOCKING
REMARK 921   NORMALIZED FREE ENERGY PREDICTED BY IDOCK:   -7.95 KCAL/MOL
REMARK 922        TOTAL FREE ENERGY PREDICTED BY IDOCK:  -13.13 KCAL/MOL
REMARK 923 INTER-LIGAND FREE ENERGY PREDICTED BY IDOCK:  -12.59 KCAL/MOL
REMARK 924 INTRA-LIGAND FREE ENERGY PREDICTED BY IDOCK:   -0.54 KCAL/MOL
REMARK 927      BINDING AFFINITY PREDICTED BY RF-SCORE:    0.00 PKD
ROOT
HETATM    1  C4  FVK A 401     -17.327 -34.094   6.043  1.00  0.00    -0.394 C  
HETATM    2  C3  FVK A 401     -17.354 -34.166   4.535  1.00  0.00    -0.487 C  
HETATM    3  O1  FVK A 401     -16.916 -35.429   4.048  1.00  0.00    -0.577 OA 
HETATM    4  C2  FVK A 401     -15.592 -35.685   4.498  1.00  0.00    -0.354 C  
HETATM    5  C1  FVK A 401     -15.535 -35.730   6.003  1.00  0.00    -0.437 C  
HETATM    6  N1  FVK A 401     -16.007 -34.460   6.549  1.00  0.00    -0.410 N  
ENDROOT
BRANCH   6   7
HETATM    7  C5  FVK A 401     -15.256 -33.768   7.474  1.00  0.00    -0.471 C  
HETATM    8  O2  FVK A 401     -14.080 -34.069   7.667  1.00  0.00    -0.350 OA 
BRANCH   7   9
HETATM    9  N2  FVK A 401     -15.830 -32.817   8.187  1.00  0.00    -0.378 N  
HETATM   10  H2  FVK A 401     -16.810 -32.596   8.011  1.00  0.00     0.000 HD 
BRANCH   9  11
HETATM   11  C6  FVK A 401     -15.118 -32.070   9.216  1.00  0.00    -0.410 C  
BRANCH  11  12
HETATM   12  C7  FVK A 401     -16.015 -31.666  10.369  1.00  0.00    -0.323 C  
BRANCH  12  13
HETATM   13  N3  FVK A 401     -17.022 -32.676  10.704  1.00  0.00    -0.837 NA 
HETATM   14  H3  FVK A 401     -16.712 -33.606  10.421  1.00  0.00     0.000 HD 
BRANCH  13  15
HETATM   15  C8  FVK A 401     -17.403 -32.661  12.117  1.00  0.00    -0.382 C  
BRANCH  15  16
HETATM   16  C9  FVK A 401     -18.748 -33.333  12.360  1.00  0.00    -0.229 C  
HETATM   17  O5  FVK A 401     -19.685 -32.994  11.347  1.00  0.00    -0.795 OA 
HETATM   18  H5  FVK A 401     -20.524 -33.413  11.499  1.00  0.00     0.000 HD 
BRANCH  16  19
HETATM   19  C10 FVK A 401     -19.292 -32.918  13.710  1.00  0.00    -0.474 C  
BRANCH  19  20
HETATM   20  O3  FVK A 401     -18.321 -33.273  14.705  1.00  0.00    -0.210 OA 
BRANCH  20  21
HETATM   21  C11 FVK A 401     -18.369 -32.692  15.948  1.00  0.00    -0.520 A  
HETATM   22  C12 FVK A 401     -17.353 -33.037  16.829  1.00  0.00    -0.830 A  
HETATM   23  C13 FVK A 401     -17.320 -32.500  18.108  1.00  0.00    -0.697 A  
HETATM   24  C14 FVK A 401     -18.307 -31.619  18.519  1.00  0.00    -0.626 A  
HETATM   25  O4  FVK A 401     -18.292 -31.087  19.769  1.00  0.00    -0.596 OA 
HETATM   26  C15 FVK A 401     -19.321 -31.276  17.643  1.00  0.00    -0.887 A  
HETATM   27  C16 FVK A 401     -19.356 -31.807  16.365  1.00  0.00    -0.917 A  
HETATM   28  H4  FVK A 401     -18.969 -30.483  20.051  1.00  0.00     0.000 HD 
ENDBRANCH  20  21
ENDBRANCH  19  20
ENDBRANCH  16  19
ENDBRANCH  15  16
ENDBRANCH  13  15
ENDBRANCH  12  13
ENDBRANCH  11  12
ENDBRANCH   9  11
ENDBRANCH   7   9
ENDBRANCH   6   7
TORSDOF 10
ENDMDL
