MODEL        1
REMARK THIS MODEL IS IDENTICAL TO THE INPUT LIGAND AND NOT FROM DOCKING
REMARK 921   NORMALIZED FREE ENERGY PREDICTED BY IDOCK:   -6.85 KCAL/MOL
REMARK 922        TOTAL FREE ENERGY PREDICTED BY IDOCK:   -8.64 KCAL/MOL
REMARK 923 INTER-LIGAND FREE ENERGY PREDICTED BY IDOCK:   -8.46 KCAL/MOL
REMARK 924 INTRA-LIGAND FREE ENERGY PREDICTED BY IDOCK:   -0.18 KCAL/MOL
REMARK 927      BINDING AFFINITY PREDICTED BY RF-SCORE:    0.00 PKD
ROOT
HETATM    1  CAI 5FW A 601     -27.698 -15.447  25.092  1.00  0.00    -0.388 C  
HETATM    2  CAG 5FW A 601     -26.178 -15.400  25.217  1.00  0.00    -0.382 C  
HETATM    3  CAJ 5FW A 601     -25.540 -16.542  24.393  1.00  0.00    -0.706 C  
ENDROOT
BRANCH   2   4
HETATM    4  NAD 5FW A 601     -25.703 -14.074  24.758  1.00  0.00    -0.642 NA 
HETATM    5  HAD 5FW A 601     -26.292 -13.334  25.140  1.00  0.00     0.000 HD 
BRANCH   4   6
HETATM    6  CAF 5FW A 601     -24.277 -13.801  25.048  1.00  0.00    -0.341 C  
BRANCH   6   7
HETATM    7  CAE 5FW A 601     -24.040 -12.291  25.085  1.00  0.00    -0.502 C  
HETATM    8  OAA 5FW A 601     -24.423 -11.773  23.821  1.00  0.00    -0.512 OA 
HETATM    9  HAA 5FW A 601     -24.276 -10.835  23.844  1.00  0.00     0.000 HD 
BRANCH   7  10
HETATM   10  CAH 5FW A 601     -22.573 -11.997  25.334  1.00  0.00    -0.572 A  
HETATM   11  CAK 5FW A 601     -21.982 -12.477  26.481  1.00  0.00    -0.643 A  
HETATM   12  CAM 5FW A 601     -20.641 -12.228  26.733  1.00  0.00    -0.425 A  
HETATM   13  CAO 5FW A 601     -19.874 -11.480  25.838  1.00  0.00    -0.514 A  
HETATM   14  OAB 5FW A 601     -20.106 -12.729  27.877  1.00  0.00    -0.513 OA 
HETATM   15  OAC 5FW A 601     -18.566 -11.233  26.086  1.00  0.00    -0.770 OA 
HETATM   16  CAN 5FW A 601     -20.457 -10.984  24.678  1.00  0.00    -0.793 A  
HETATM   17  HAB 5FW A 601     -19.187 -12.558  28.050  1.00  0.00     0.000 HD 
HETATM   18  HAC 5FW A 601     -18.167 -11.572  26.879  1.00  0.00     0.000 HD 
HETATM   19  CAL 5FW A 601     -21.809 -11.255  24.431  1.00  0.00    -0.752 A  
ENDBRANCH   7  10
ENDBRANCH   6   7
ENDBRANCH   4   6
ENDBRANCH   2   4
TORSDOF 4
ENDMDL
