MODEL        1
REMARK THIS MODEL IS IDENTICAL TO THE INPUT LIGAND AND NOT FROM DOCKING
REMARK 921   NORMALIZED FREE ENERGY PREDICTED BY IDOCK:   -6.21 KCAL/MOL
REMARK 922        TOTAL FREE ENERGY PREDICTED BY IDOCK:   -7.16 KCAL/MOL
REMARK 923 INTER-LIGAND FREE ENERGY PREDICTED BY IDOCK:   -6.93 KCAL/MOL
REMARK 924 INTRA-LIGAND FREE ENERGY PREDICTED BY IDOCK:   -0.22 KCAL/MOL
REMARK 927      BINDING AFFINITY PREDICTED BY RF-SCORE:    0.00 PKD
ROOT
HETATM    1  N2  T4G A 330      50.356  24.015  31.108  1.00  0.00    -0.140 NA 
HETATM    2  C3  T4G A 330      50.199  24.595  29.874  1.00  0.00    -0.280 A  
HETATM    3  N3  T4G A 330      51.287  25.042  29.241  1.00  0.00    -0.513 NA 
HETATM    4  N4  T4G A 330      48.963  24.727  29.270  1.00  0.00    -0.199 NA 
HETATM    5  C5  T4G A 330      47.766  24.287  29.849  1.00  0.00    -0.111 A  
HETATM    6  H31 T4G A 330      51.170  25.473  28.324  1.00  0.00     0.000 HD 
HETATM    7  H32 T4G A 330      52.211  24.955  29.664  1.00  0.00     0.000 HD 
HETATM    8  C6  T4G A 330      47.919  23.679  31.147  1.00  0.00     0.126 A  
HETATM    9  N1  T4G A 330      49.210  23.574  31.703  1.00  0.00     0.140 NA 
ENDROOT
BRANCH   5  10
HETATM   10  C14 T4G A 330      46.483  24.479  29.120  1.00  0.00    -0.618 A  
HETATM   11  C19 T4G A 330      45.520  23.453  28.961  1.00  0.00    -0.480 A  
HETATM   12  C15 T4G A 330      46.194  25.744  28.546  1.00  0.00     0.130 A  
HETATM   13  C16 T4G A 330      44.995  25.983  27.844  1.00  0.00    -0.537 A  
HETATM   14  C18 T4G A 330      44.323  23.688  28.261  1.00  0.00    -0.454 A  
HETATM   15  C17 T4G A 330      44.052  24.948  27.699  1.00  0.00    -0.417 A  
ENDBRANCH   5  10
BRANCH   8  16
HETATM   16  C7  T4G A 330      46.833  23.112  31.959  1.00  0.00    -0.641 A  
HETATM   17  C11 T4G A 330      46.996  21.821  32.503  1.00  0.00    -0.618 A  
HETATM   18  C12 T4G A 330      46.121  19.890  33.868  1.00  0.00    -0.482 C  
HETATM   19  N5  T4G A 330      44.795  21.918  33.516  1.00  0.00    -0.337 NA 
HETATM   20  C9  T4G A 330      44.639  23.151  32.989  1.00  0.00    -0.304 A  
HETATM   21  C10 T4G A 330      45.957  21.271  33.272  1.00  0.00    -0.289 A  
HETATM   22  C8  T4G A 330      45.621  23.791  32.204  1.00  0.00    -0.377 A  
HETATM   23  C13 T4G A 330      43.327  23.834  33.285  1.00  0.00    -0.537 C  
ENDBRANCH   8  16
TORSDOF 2
ENDMDL
