REMARK  2 active torsions:
REMARK  status: ('A' for Active; 'I' for Inactive)
REMARK    1  A    between atoms: C5'_2  and  C4'_4
REMARK    2  A    between atoms: C1'_6  and  N9_13
ROOT
HETATM    1  O5' ADN R 400      94.955 116.834  91.940  1.00  0.00    -0.392 OA
HETATM    2  C5' ADN R 400      93.553 116.651  91.830  1.00  0.00     0.190 C
HETATM    3  H5' ADN R 400      95.423 116.346  91.273  1.00  0.00     0.210 HD
ENDROOT
BRANCH   2   4
HETATM    4  C4' ADN R 400      92.812 117.424  92.887  1.00  0.00     0.177 C
HETATM    5  O4' ADN R 400      93.123 118.826  92.766  1.00  0.00    -0.350 OA
HETATM    6  C1' ADN R 400      92.041 119.595  93.230  1.00  0.00     0.231 C
HETATM    7  C2' ADN R 400      90.858 118.657  93.484  1.00  0.00     0.190 C
HETATM    8  H3' ADN R 400      89.804 116.175  93.305  1.00  0.00     0.210 HD
HETATM    9  H2' ADN R 400      90.455 119.256  95.314  1.00  0.00     0.210 HD
HETATM   10  C3' ADN R 400      91.299 117.375  92.788  1.00  0.00     0.178 C
HETATM   11  O2' ADN R 400      90.730 118.457  94.880  1.00  0.00    -0.385 OA
HETATM   12  O3' ADN R 400      90.751 116.206  93.367  1.00  0.00    -0.386 OA
BRANCH   6  13
HETATM   13  N9  ADN R 400      91.724 120.640  92.243  1.00  0.00    -0.187 NA
HETATM   14  C8  ADN R 400      92.226 120.774  90.976  1.00  0.00     0.177 A
HETATM   15  N7  ADN R 400      91.786 121.831  90.337  1.00  0.00    -0.237 NA
HETATM   16  C5  ADN R 400      90.928 122.431  91.245  1.00  0.00     0.138 A
HETATM   17  C6  ADN R 400      90.123 123.581  91.175  1.00  0.00     0.134 A
HETATM   18  N6  ADN R 400      90.071 124.388  90.112  1.00  0.00    -0.285 NA
HETATM   19  N1  ADN R 400      89.364 123.883  92.251  1.00  0.00    -0.222 NA
HETATM   20  H61 ADN R 400      89.487 125.223  90.061  1.00  0.00     0.125 HD
HETATM   21  H62 ADN R 400      90.649 124.156  89.304  1.00  0.00     0.125 HD
HETATM   22  C2  ADN R 400      89.417 123.087  93.321  1.00  0.00     0.224 A
HETATM   23  N3  ADN R 400      90.142 121.982  93.504  1.00  0.00    -0.221 NA
HETATM   24  C4  ADN R 400      90.879 121.705  92.424  1.00  0.00     0.147 A
ENDBRANCH   6  13
ENDBRANCH   2   4
TORSDOF 2
