REMARK  2 active torsions:
REMARK  status: ('A' for Active; 'I' for Inactive)
REMARK    1  A    between atoms: C14_5  and  O17_18
REMARK    2  A    between atoms: O17_18  and  C18_19
ROOT
HETATM    1  C1  QNB A1162       6.159  -0.164  -3.375  1.00  0.00     0.202 C
HETATM    2  C2  QNB A1162       6.982  -1.060  -2.494  1.00  0.00    -0.002 A
HETATM    3  O15 QNB A1162       4.887   0.028  -2.746  1.00  0.00    -0.371 OA
HETATM    4  C8  QNB A1162       5.926  -0.813  -4.710  1.00  0.00    -0.002 A
HETATM    5  C14 QNB A1162       6.828   1.186  -3.514  1.00  0.00     0.304 C
HETATM    6  H15 QNB A1162       5.034   0.438  -1.902  1.00  0.00     0.212 HD
HETATM    7  C12 QNB A1162       5.894  -0.706  -7.122  1.00  0.00     0.000 A
HETATM    8  O16 QNB A1162       6.466   2.128  -2.827  1.00  0.00    -0.261 OA
HETATM    9  C9  QNB A1162       5.485  -2.132  -4.769  1.00  0.00     0.007 A
HETATM   10  C3  QNB A1162       8.054  -1.773  -3.017  1.00  0.00     0.007 A
HETATM   11  C10 QNB A1162       5.259  -2.739  -5.999  1.00  0.00     0.000 A
HETATM   12  C7  QNB A1162       6.650  -1.195  -1.150  1.00  0.00     0.007 A
HETATM   13  C4  QNB A1162       8.803  -2.606  -2.190  1.00  0.00     0.000 A
HETATM   14  C5  QNB A1162       8.475  -2.735  -0.844  1.00  0.00     0.000 A
HETATM   15  C13 QNB A1162       6.120  -0.102  -5.891  1.00  0.00     0.007 A
HETATM   16  C11 QNB A1162       5.463  -2.026  -7.176  1.00  0.00     0.000 A
HETATM   17  C6  QNB A1162       7.398  -2.028  -0.324  1.00  0.00     0.000 A
ENDROOT
BRANCH   5  18
HETATM   18  O17 QNB A1162       7.905   1.402  -4.468  1.00  0.00    -0.308 OA
BRANCH  18  19
HETATM   19  C18 QNB A1162       8.723   2.519  -4.128  1.00  0.00     0.145 C
HETATM   20  C21 QNB A1162      11.412   1.702  -4.938  1.00  0.00     0.085 C
HETATM   21  C23 QNB A1162       9.401   3.034  -5.387  1.00  0.00     0.022 C
HETATM   22  C22 QNB A1162      10.291   1.938  -5.939  1.00  0.00     0.021 C
HETATM   23  N20 QNB A1162      11.120   2.428  -3.684  1.00  0.00    -0.300 NA
HETATM   24  C25 QNB A1162      11.192   3.886  -3.891  1.00  0.00     0.085 C
HETATM   25  C19 QNB A1162       9.793   2.093  -3.129  1.00  0.00     0.116 C
HETATM   26  C24 QNB A1162      10.291   4.229  -5.073  1.00  0.00     0.021 C
ENDBRANCH  18  19
ENDBRANCH   5  18
TORSDOF 2
