MODEL        1
REMARK THIS MODEL IS IDENTICAL TO THE INPUT LIGAND AND NOT FROM DOCKING
REMARK 921   NORMALIZED FREE ENERGY PREDICTED BY IDOCK:   -3.89 KCAL/MOL
REMARK 922        TOTAL FREE ENERGY PREDICTED BY IDOCK:   -5.33 KCAL/MOL
REMARK 923 INTER-LIGAND FREE ENERGY PREDICTED BY IDOCK:   -4.79 KCAL/MOL
REMARK 924 INTRA-LIGAND FREE ENERGY PREDICTED BY IDOCK:   -0.53 KCAL/MOL
REMARK 927      BINDING AFFINITY PREDICTED BY RF-SCORE:    0.00 PKD
ROOT
HETATM    1  C1  RET A1296      89.129  61.592 -17.675  1.00  0.00    -0.483 C  
HETATM    2  C17 RET A1296      90.251  60.577 -18.039  1.00  0.00    -0.572 C  
HETATM    3  C6  RET A1296      87.732  60.888 -17.453  1.00  0.00    -0.489 C  
HETATM    4  C16 RET A1296      89.053  62.655 -18.798  1.00  0.00    -0.601 C  
HETATM    5  C5  RET A1296      87.016  61.120 -16.261  1.00  0.00    -0.630 C  
HETATM    6  C2  RET A1296      89.680  62.322 -16.432  1.00  0.00    -0.556 C  
HETATM    7  C18 RET A1296      85.599  60.711 -15.925  1.00  0.00    -0.775 C  
HETATM    8  C4  RET A1296      87.631  61.884 -15.087  1.00  0.00    -0.836 C  
HETATM    9  C3  RET A1296      88.674  62.898 -15.498  1.00  0.00    -0.765 C  
ENDROOT
BRANCH   3  10
HETATM   10  C7  RET A1296      87.222  59.963 -18.504  1.00  0.00    -0.522 C  
HETATM   11  C8  RET A1296      86.511  58.805 -18.489  1.00  0.00    -0.580 C  
BRANCH  11  12
HETATM   12  C9  RET A1296      86.070  58.025 -19.652  1.00  0.00    -0.570 C  
HETATM   13  C10 RET A1296      85.497  56.792 -19.458  1.00  0.00    -0.496 C  
HETATM   14  C19 RET A1296      86.301  58.660 -21.016  1.00  0.00    -0.497 C  
BRANCH  13  15
HETATM   15  C11 RET A1296      85.481  56.027 -18.238  1.00  0.00    -0.731 C  
HETATM   16  C12 RET A1296      85.018  54.741 -18.282  1.00  0.00    -0.528 C  
BRANCH  16  17
HETATM   17  C13 RET A1296      85.203  53.780 -17.198  1.00  0.00    -0.579 C  
HETATM   18  C14 RET A1296      84.439  52.657 -17.260  1.00  0.00     0.848 C  
HETATM   19  C20 RET A1296      86.201  54.061 -16.105  1.00  0.00    -0.949 C  
HETATM   20  C15 RET A1296      84.583  51.511 -16.400  1.00  0.00     5.518 C  
ENDBRANCH  16  17
ENDBRANCH  13  15
ENDBRANCH  11  12
ENDBRANCH   3  10
TORSDOF 4
ENDMDL
