REMARK  7 active torsions:
REMARK  status: ('A' for Active; 'I' for Inactive)
REMARK    1  A    between atoms: C7_8  and  C8_11
REMARK    2  A    between atoms: C8_11  and  S2_12
REMARK    3  A    between atoms: S2_12  and  C9_13
REMARK    4  A    between atoms: C9_13  and  N4_14
REMARK    5  A    between atoms: C9_13  and  N3_22
REMARK    6  A    between atoms: N4_14  and  C16_16
REMARK    7  A    between atoms: N3_22  and  C10_24
ROOT
HETATM    1  C1  ITD A1500      16.263  -6.280  67.102  1.00  0.00     0.041 C
HETATM    2  C2  ITD A1500      17.661  -6.546  67.643  1.00  0.00     0.087 C
HETATM    3  N1  ITD A1500      17.926  -7.984  67.615  1.00  0.00    -0.254 NA
HETATM    4  C3  ITD A1500      18.729  -5.812  66.836  1.00  0.00     0.041 C
HETATM    5  C4  ITD A1500      18.229  -8.379  68.859  1.00  0.00     0.152 C
HETATM    6  S1  ITD A1500      18.853  -9.843  69.494  1.00  0.00    -0.064 SA
HETATM    7  C5  ITD A1500      18.981  -9.093  71.061  1.00  0.00     0.065 C
HETATM    8  C7  ITD A1500      18.588  -7.737  70.955  1.00  0.00     0.023 C
HETATM    9  C6  ITD A1500      17.752  -6.132  69.120  1.00  0.00     0.070 C
HETATM   10  N2  ITD A1500      18.209  -7.382  69.701  1.00  0.00    -0.204 NA
ENDROOT
BRANCH   8  11
HETATM   11  C8  ITD A1500      18.621  -6.760  72.105  1.00  0.00     0.124 C
BRANCH  11  12
HETATM   12  S2  ITD A1500      20.266  -6.133  72.241  1.00  0.00    -0.096 SA
BRANCH  12  13
HETATM   13  C9  ITD A1500      21.255  -7.369  72.779  1.00  0.00     0.095 C
BRANCH  13  14
HETATM   14  N4  ITD A1500      22.509  -7.497  72.324  1.00  0.00    -0.270 NA
HETATM   15  H4  ITD A1500      23.232  -7.657  73.025  1.00  0.00     0.129 HD
BRANCH  14  16
HETATM   16  C16 ITD A1500      22.954  -7.432  70.931  1.00  0.00     0.060 C
HETATM   17  C21 ITD A1500      23.828  -6.218  70.637  1.00  0.00     0.019 C
HETATM   18  C17 ITD A1500      21.895  -7.605  69.845  1.00  0.00     0.019 C
HETATM   19  C20 ITD A1500      24.516  -6.362  69.280  1.00  0.00     0.002 C
HETATM   20  C18 ITD A1500      22.552  -7.752  68.473  1.00  0.00     0.002 C
HETATM   21  C19 ITD A1500      23.512  -6.603  68.157  1.00  0.00     0.000 C
ENDBRANCH  14  16
ENDBRANCH  13  14
BRANCH  13  22
HETATM   22  N3  ITD A1500      20.721  -8.189  73.690  1.00  0.00    -0.270 NA
HETATM   23  H3  ITD A1500      19.758  -7.975  73.952  1.00  0.00     0.129 HD
BRANCH  22  24
HETATM   24  C10 ITD A1500      21.301  -9.340  74.366  1.00  0.00     0.060 C
HETATM   25  C14 ITD A1500      22.144 -11.682  74.350  1.00  0.00     0.002 C
HETATM   26  C15 ITD A1500      21.967 -10.410  73.516  1.00  0.00     0.019 C
HETATM   27  C12 ITD A1500      22.268 -10.246  76.470  1.00  0.00     0.002 C
HETATM   28  C13 ITD A1500      22.821 -11.453  75.710  1.00  0.00     0.000 C
HETATM   29  C11 ITD A1500      22.147  -9.006  75.586  1.00  0.00     0.019 C
ENDBRANCH  22  24
ENDBRANCH  13  22
ENDBRANCH  12  13
ENDBRANCH  11  12
ENDBRANCH   8  11
TORSDOF 7
