MODEL        1
REMARK THIS MODEL IS IDENTICAL TO THE INPUT LIGAND AND NOT FROM DOCKING
REMARK 921   NORMALIZED FREE ENERGY PREDICTED BY IDOCK:  -11.79 KCAL/MOL
REMARK 922        TOTAL FREE ENERGY PREDICTED BY IDOCK:  -17.88 KCAL/MOL
REMARK 923 INTER-LIGAND FREE ENERGY PREDICTED BY IDOCK:  -15.92 KCAL/MOL
REMARK 924 INTRA-LIGAND FREE ENERGY PREDICTED BY IDOCK:   -1.95 KCAL/MOL
REMARK 927      BINDING AFFINITY PREDICTED BY RF-SCORE:    0.00 PKD
ROOT
HETATM    1  C13 GBQ A1201      12.083 137.184 205.492  1.00  0.00    -0.367 C  
HETATM    2  F15 GBQ A1201      11.469 136.765 204.460  1.00  0.00    -0.653 F  
HETATM    3  F16 GBQ A1201      13.203 137.684 205.135  1.00  0.00    -0.621 F  
HETATM    4  F14 GBQ A1201      11.355 138.139 206.022  1.00  0.00    -0.464 F  
HETATM    5  C05 GBQ A1201      12.298 136.133 206.412  1.00  0.00    -0.626 A  
HETATM    6  C06 GBQ A1201      11.967 134.801 206.099  1.00  0.00    -0.680 A  
HETATM    7  C07 GBQ A1201      12.164 133.756 207.023  1.00  0.00    -0.558 A  
HETATM    8  C08 GBQ A1201      12.718 134.068 208.271  1.00  0.00    -0.557 A  
HETATM    9  C09 GBQ A1201      11.836 132.403 206.726  1.00  0.00    -0.381 C  
HETATM   10  F10 GBQ A1201      12.990 131.649 206.697  1.00  0.00    -0.456 F  
HETATM   11  F11 GBQ A1201      10.985 131.879 207.726  1.00  0.00    -0.469 F  
HETATM   12  C03 GBQ A1201      13.071 135.379 208.604  1.00  0.00    -0.509 A  
HETATM   13  F12 GBQ A1201      11.180 132.265 205.463  1.00  0.00    -0.503 F  
HETATM   14  C04 GBQ A1201      12.858 136.405 207.668  1.00  0.00    -0.587 A  
ENDROOT
BRANCH  12  15
HETATM   15  C02 GBQ A1201      13.602 135.620 209.885  1.00  0.00    -0.266 C  
HETATM   16  C01 GBQ A1201      15.121 135.625 209.844  1.00  0.00    -0.521 C  
BRANCH  15  17
HETATM   17  O17 GBQ A1201      13.127 136.844 210.491  1.00  0.00    -0.241 OA 
BRANCH  17  18
HETATM   18  C18 GBQ A1201      11.829 136.660 211.182  1.00  0.00    -0.230 C  
HETATM   19  C19 GBQ A1201      11.162 138.028 211.599  1.00  0.00    -0.260 C  
HETATM   20  O23 GBQ A1201      11.952 135.794 212.373  1.00  0.00    -0.228 OA 
HETATM   21  N20 GBQ A1201      11.939 138.618 212.717  1.00  0.00    -0.212 NA 
HETATM   22  C21 GBQ A1201      12.138 137.707 213.867  1.00  0.00    -0.196 C  
HETATM   23  C22 GBQ A1201      12.755 136.375 213.449  1.00  0.00    -0.206 C  
BRANCH  19  24
HETATM   24  C31 GBQ A1201      10.994 138.842 210.443  1.00  0.00    -0.458 A  
HETATM   25  C35 GBQ A1201       9.526 139.568 208.634  1.00  0.00    -0.574 A  
HETATM   26  C36 GBQ A1201       9.760 138.787 209.772  1.00  0.00    -0.748 A  
HETATM   27  C33 GBQ A1201      11.779 140.475 208.819  1.00  0.00    -0.506 A  
HETATM   28  C32 GBQ A1201      12.001 139.697 209.958  1.00  0.00    -0.360 A  
HETATM   29  C34 GBQ A1201      10.542 140.413 208.166  1.00  0.00    -0.428 A  
HETATM   30  F37 GBQ A1201      10.330 141.192 207.065  1.00  0.00    -0.512 F  
ENDBRANCH  19  24
BRANCH  21  31
HETATM   31  C24 GBQ A1201      11.514 139.913 213.255  1.00  0.00    -0.223 C  
BRANCH  31  32
HETATM   32  C25 GBQ A1201      12.810 140.672 213.528  1.00  0.00    -0.324 C  
HETATM   33  C27 GBQ A1201      14.353 141.764 214.431  1.00  0.00    -0.454 C  
HETATM   34  O28 GBQ A1201      14.991 142.449 215.212  1.00  0.00    -0.480 OA 
HETATM   35  N29 GBQ A1201      14.835 141.362 213.266  1.00  0.00    -0.447 N  
HETATM   36  N26 GBQ A1201      13.112 141.332 214.638  1.00  0.00    -0.305 NA 
HETATM   37  H29 GBQ A1201      15.759 141.556 212.880  1.00  0.00     0.000 HD 
HETATM   38  N30 GBQ A1201      13.854 140.647 212.700  1.00  0.00    -0.313 NA 
ENDBRANCH  31  32
ENDBRANCH  21  31
ENDBRANCH  17  18
ENDBRANCH  15  17
ENDBRANCH  12  15
TORSDOF 6
ENDMDL
