MODEL        1
REMARK THIS MODEL IS IDENTICAL TO THE INPUT LIGAND AND NOT FROM DOCKING
REMARK 921   NORMALIZED FREE ENERGY PREDICTED BY IDOCK:   -2.86 KCAL/MOL
REMARK 922        TOTAL FREE ENERGY PREDICTED BY IDOCK:   -3.99 KCAL/MOL
REMARK 923 INTER-LIGAND FREE ENERGY PREDICTED BY IDOCK:   -3.52 KCAL/MOL
REMARK 924 INTRA-LIGAND FREE ENERGY PREDICTED BY IDOCK:   -0.46 KCAL/MOL
REMARK 927      BINDING AFFINITY PREDICTED BY RF-SCORE:    0.00 PKD
ROOT
HETATM    1  C1  RET A 801     -43.137 -16.091  34.573  1.00  0.00    -0.498 C  
HETATM    2  C2  RET A 801     -43.403 -17.632  34.691  1.00  0.00    -0.653 C  
HETATM    3  C17 RET A 801     -42.398 -15.898  35.883  1.00  0.00    -0.788 C  
HETATM    4  C16 RET A 801     -42.251 -15.672  33.449  1.00  0.00    -0.706 C  
HETATM    5  C3  RET A 801     -44.631 -18.091  34.082  1.00  0.00    -0.736 C  
HETATM    6  C4  RET A 801     -45.849 -17.295  34.371  1.00  0.00    -0.573 C  
HETATM    7  C5  RET A 801     -45.641 -15.813  34.274  1.00  0.00    -0.543 C  
HETATM    8  C6  RET A 801     -44.446 -15.269  34.526  1.00  0.00    -0.522 C  
HETATM    9  C18 RET A 801     -46.870 -15.038  33.849  1.00  0.00    -0.668 C  
ENDROOT
BRANCH   8  10
HETATM   10  C7  RET A 801     -44.266 -13.812  34.735  1.00  0.00    -0.517 C  
HETATM   11  C8  RET A 801     -44.965 -13.011  35.523  1.00  0.00    -0.695 C  
BRANCH  11  12
HETATM   12  C9  RET A 801     -44.749 -11.577  35.697  1.00  0.00    -0.559 C  
HETATM   13  C19 RET A 801     -43.915 -10.860  34.676  1.00  0.00    -0.639 C  
HETATM   14  C10 RET A 801     -45.313 -10.999  36.765  1.00  0.00    -0.717 C  
BRANCH  14  15
HETATM   15  C11 RET A 801     -45.282  -9.635  37.198  1.00  0.00    -0.592 C  
HETATM   16  C12 RET A 801     -46.021  -9.215  38.247  1.00  0.00    -0.492 C  
BRANCH  16  17
HETATM   17  C13 RET A 801     -46.084  -7.886  38.802  1.00  0.00    -0.457 C  
HETATM   18  C14 RET A 801     -46.966  -7.644  39.806  1.00  0.00     0.966 C  
HETATM   19  C20 RET A 801     -45.164  -6.837  38.241  1.00  0.00    -0.485 C  
HETATM   20  C15 RET A 801     -47.183  -6.386  40.492  1.00  0.00     6.352 C  
ENDBRANCH  16  17
ENDBRANCH  14  15
ENDBRANCH  11  12
ENDBRANCH   8  10
TORSDOF 4
ENDMDL
