MODEL        1
REMARK THIS MODEL IS IDENTICAL TO THE INPUT LIGAND AND NOT FROM DOCKING
REMARK 921   NORMALIZED FREE ENERGY PREDICTED BY IDOCK:   -8.63 KCAL/MOL
REMARK 922        TOTAL FREE ENERGY PREDICTED BY IDOCK:   -9.54 KCAL/MOL
REMARK 923 INTER-LIGAND FREE ENERGY PREDICTED BY IDOCK:   -9.64 KCAL/MOL
REMARK 924 INTRA-LIGAND FREE ENERGY PREDICTED BY IDOCK:    0.09 KCAL/MOL
REMARK 927      BINDING AFFINITY PREDICTED BY RF-SCORE:    0.00 PKD
ROOT
HETATM    1  C10 DLH A 412    -233.947  47.313  36.380  1.00  0.00    -0.345 C  
HETATM    2  C8  DLH A 412    -234.370  48.303  35.290  1.00  0.00    -0.184 C  
HETATM    3  C1  DLH A 412    -235.876  48.206  35.160  1.00  0.00    -0.297 C  
HETATM    4  C9  DLH A 412    -236.270  46.837  34.624  1.00  0.00    -0.656 C  
HETATM    5  O4  DLH A 412    -236.392  48.435  36.468  1.00  0.00    -0.376 OA 
HETATM    6  C11 DLH A 412    -235.738  45.768  35.591  1.00  0.00    -0.287 C  
HETATM    7  C7  DLH A 412    -237.096  49.601  36.401  1.00  0.00    -0.348 A  
HETATM    8  C21 DLH A 412    -237.763  50.239  37.409  1.00  0.00    -0.612 A  
HETATM    9  N2  DLH A 412    -234.306  45.932  36.002  1.00  0.00    -0.279 N  
HETATM   10  C24 DLH A 412    -238.406  51.427  37.039  1.00  0.00    -0.316 A  
HETATM   11  C3  DLH A 412    -233.272  45.102  35.471  1.00  0.00    -0.310 C  
HETATM   12  C23 DLH A 412    -238.378  51.919  35.746  1.00  0.00    -0.485 A  
HETATM   13  O13 DLH A 412    -232.196  45.597  35.156  1.00  0.00    -0.494 OA 
HETATM   14  C6  DLH A 412    -237.060  50.098  35.083  1.00  0.00    -0.330 A  
HETATM   15  O5  DLH A 412    -236.325  49.250  34.299  1.00  0.00    -0.331 OA 
HETATM   16  C22 DLH A 412    -237.692  51.257  34.720  1.00  0.00    -0.445 A  
ENDROOT
BRANCH  11  17
HETATM   17  C12 DLH A 412    -233.508  43.601  35.299  1.00  0.00    -0.192 C  
BRANCH  17  18
HETATM   18  C14 DLH A 412    -234.354  43.022  36.388  1.00  0.00    -0.392 A  
HETATM   19  C17 DLH A 412    -235.511  42.344  36.017  1.00  0.00    -0.437 A  
HETATM   20  C19 DLH A 412    -236.337  41.791  36.981  1.00  0.00    -0.640 A  
HETATM   21  C15 DLH A 412    -235.977  41.938  38.307  1.00  0.00    -0.338 A  
HETATM   22  C20 DLH A 412    -234.832  42.611  38.708  1.00  0.00    -0.485 A  
HETATM   23 CL   DLH A 412    -237.002  41.251  39.508  1.00  0.00    -0.619 Cl 
HETATM   24  C18 DLH A 412    -234.010  43.162  37.729  1.00  0.00    -0.436 A  
ENDBRANCH  17  18
ENDBRANCH  11  17
TORSDOF 2
ENDMDL
