REMARK  2 active torsions:
REMARK  status: ('A' for Active; 'I' for Inactive)
REMARK    1  A    between atoms: C28_1  and  O11_16
REMARK    2  A    between atoms: O11_16  and  C5_17
ROOT
HETATM    1  C28 0HK A2000     -15.942  -7.110 -43.258  1.00  0.00     0.305 C
HETATM    2  C30 0HK A2000     -16.442  -5.705 -43.049  1.00  0.00     0.214 C
HETATM    3  O29 0HK A2000     -16.533  -7.890 -43.996  1.00  0.00    -0.261 OA
HETATM    4  C36 0HK A2000     -16.694  -4.577 -39.029  1.00  0.00     0.045 A
HETATM    5  C32 0HK A2000     -15.481  -4.730 -43.680  1.00  0.00     0.036 A
HETATM    6  O33 0HK A2000     -17.696  -5.630 -43.612  1.00  0.00    -0.370 OA
HETATM    7  S44 0HK A2000     -15.505  -3.911 -45.265  1.00  0.00    -0.098 SA
HETATM    8  C31 0HK A2000     -16.491  -5.443 -41.570  1.00  0.00     0.036 A
HETATM    9  S37 0HK A2000     -17.008  -3.986 -40.692  1.00  0.00    -0.098 SA
HETATM   10  C41 0HK A2000     -14.337  -4.219 -43.121  1.00  0.00     0.015 A
HETATM   11  C34 0HK A2000     -16.100  -6.275 -40.545  1.00  0.00     0.015 A
HETATM   12  H33 0HK A2000     -18.011  -4.744 -43.480  1.00  0.00     0.212 HD
HETATM   13  C43 0HK A2000     -13.989  -2.962 -45.075  1.00  0.00     0.045 A
HETATM   14  C42 0HK A2000     -13.584  -3.337 -43.819  1.00  0.00     0.008 A
HETATM   15  C35 0HK A2000     -16.207  -5.840 -39.258  1.00  0.00     0.008 A
ENDROOT
BRANCH   1  16
HETATM   16  O11 0HK A2000     -14.798  -7.505 -42.534  1.00  0.00    -0.309 OA
BRANCH  16  17
HETATM   17  C5  0HK A2000     -14.231  -8.787 -42.686  1.00  0.00     0.132 C
HETATM   18  C9  0HK A2000     -12.224  -6.959 -41.980  1.00  0.00     0.180 C
HETATM   19  C4  0HK A2000     -13.364  -9.019 -41.478  1.00  0.00     0.068 C
HETATM   20  C3  0HK A2000     -12.007  -8.438 -41.703  1.00  0.00     0.222 C
HETATM   21  C8  0HK A2000     -12.268  -6.877 -43.448  1.00  0.00     0.180 C
HETATM   22  C7  0HK A2000     -12.100  -8.337 -43.850  1.00  0.00     0.222 C
HETATM   23  O10 0HK A2000     -11.235  -6.235 -42.709  1.00  0.00    -0.364 OA
HETATM   24  C6  0HK A2000     -13.503  -8.848 -44.011  1.00  0.00     0.068 C
HETATM   25  N2  0HK A2000     -11.349  -8.946 -42.827  1.00  0.00    -0.044 N
HETATM   26  C1  0HK A2000     -11.358 -10.366 -42.857  1.00  0.00     0.267 C
HETATM   27  C12 0HK A2000      -9.948  -8.562 -42.882  1.00  0.00     0.267 C
ENDBRANCH  16  17
ENDBRANCH   1  16
TORSDOF 2
