REMARK  5 active torsions:
REMARK  status: ('A' for Active; 'I' for Inactive)
REMARK    1  A    between atoms: C7_8  and  C8_9
REMARK    2  A    between atoms: C8_9  and  C9_10
REMARK    3  A    between atoms: C9_10  and  N10_11
REMARK    4  A    between atoms: N10_11  and  C11_13
REMARK    5  A    between atoms: C20_23  and  C21_25
ROOT
HETATM    1  C1  ZMA A1201      21.824 167.295  14.943  1.00  0.00     0.006 A
HETATM    2  C2  ZMA A1201      21.588 165.932  15.081  1.00  0.00     0.033 A
HETATM    3  C3  ZMA A1201      20.403 165.526  15.705  1.00  0.00     0.073 A
HETATM    4  O4  ZMA A1201      20.166 164.188  15.844  1.00  0.00    -0.360 OA
HETATM    5  C5  ZMA A1201      19.472 166.470  16.180  1.00  0.00     0.033 A
HETATM    6  C6  ZMA A1201      19.714 167.832  16.037  1.00  0.00     0.006 A
HETATM    7  H4  ZMA A1201      19.362 163.912  16.268  1.00  0.00     0.217 HD
HETATM    8  C7  ZMA A1201      20.893 168.237  15.402  1.00  0.00    -0.046 A
ENDROOT
BRANCH   8   9
HETATM    9  C8  ZMA A1201      21.241 169.704  15.259  1.00  0.00     0.050 C
BRANCH   9  10
HETATM   10  C9  ZMA A1201      22.105 169.975  16.486  1.00  0.00     0.094 C
BRANCH  10  11
HETATM   11  N10 ZMA A1201      22.504 171.354  16.655  1.00  0.00    -0.256 NA
HETATM   12  H10 ZMA A1201      23.405 171.674  16.299  1.00  0.00     0.131 HD
BRANCH  11  13
HETATM   13  C11 ZMA A1201      21.677 172.219  17.288  1.00  0.00     0.207 C
HETATM   14  N13 ZMA A1201      20.483 171.765  17.749  1.00  0.00    -0.192 NA
HETATM   15  C14 ZMA A1201      19.620 172.606  18.372  1.00  0.00     0.184 C
HETATM   16  N16 ZMA A1201      20.004 173.884  18.554  1.00  0.00    -0.072 NA
HETATM   17  N15 ZMA A1201      18.420 172.114  18.805  1.00  0.00    -0.275 NA
HETATM   18  C18 ZMA A1201      21.182 174.315  18.103  1.00  0.00     0.236 A
HETATM   19 1H15 ZMA A1201      17.771 172.746  19.273  1.00  0.00     0.126 HD
HETATM   20 2H15 ZMA A1201      18.178 171.133  18.662  1.00  0.00     0.126 HD
HETATM   21  N19 ZMA A1201      21.323 175.642  18.392  1.00  0.00    -0.192 NA
HETATM   22  N12 ZMA A1201      22.044 173.497  17.453  1.00  0.00    -0.185 NA
HETATM   23  C20 ZMA A1201      20.144 175.909  19.031  1.00  0.00     0.201 A
HETATM   24  N17 ZMA A1201      19.253 174.891  19.148  1.00  0.00    -0.161 NA
BRANCH  23  25
HETATM   25  C21 ZMA A1201      19.748 177.256  19.524  1.00  0.00     0.128 A
HETATM   26  C22 ZMA A1201      20.570 178.359  19.654  1.00  0.00     0.039 A
HETATM   27  C23 ZMA A1201      19.680 179.342  20.118  1.00  0.00     0.028 A
HETATM   28  C24 ZMA A1201      18.397 178.806  20.231  1.00  0.00     0.136 A
HETATM   29  O25 ZMA A1201      18.448 177.481  19.833  1.00  0.00    -0.313 OA
ENDBRANCH  23  25
ENDBRANCH  11  13
ENDBRANCH  10  11
ENDBRANCH   9  10
ENDBRANCH   8   9
TORSDOF 5
