MODEL        1
REMARK THIS MODEL IS IDENTICAL TO THE INPUT LIGAND AND NOT FROM DOCKING
REMARK 921   NORMALIZED FREE ENERGY PREDICTED BY IDOCK:  -10.32 KCAL/MOL
REMARK 922        TOTAL FREE ENERGY PREDICTED BY IDOCK:  -14.57 KCAL/MOL
REMARK 923 INTER-LIGAND FREE ENERGY PREDICTED BY IDOCK:  -13.94 KCAL/MOL
REMARK 924 INTRA-LIGAND FREE ENERGY PREDICTED BY IDOCK:   -0.63 KCAL/MOL
REMARK 927      BINDING AFFINITY PREDICTED BY RF-SCORE:    0.00 PKD
ROOT
HETATM    1  CAB AQD A1201     -16.627  11.742 -16.233  1.00  0.00    -0.611 C  
HETATM    2  OAR AQD A1201     -16.488  13.120 -15.868  1.00  0.00    -0.294 OA 
ENDROOT
BRANCH   2   3
HETATM    3  CAW AQD A1201     -15.610  13.402 -14.790  1.00  0.00    -0.417 A  
HETATM    4  CAK AQD A1201     -15.223  12.392 -13.905  1.00  0.00    -0.734 A  
HETATM    5  CAV AQD A1201     -14.344  12.722 -12.864  1.00  0.00    -0.535 A  
HETATM    6  CAX AQD A1201     -15.092  14.687 -14.660  1.00  0.00    -0.580 A  
HETATM    7  CAU AQD A1201     -13.852  14.017 -12.733  1.00  0.00    -0.451 A  
HETATM    8  CAL AQD A1201     -14.221  15.020 -13.624  1.00  0.00    -0.595 A  
HETATM    9 CLA  AQD A1201     -12.726  14.393 -11.433  1.00  0.00    -0.665 Cl 
BRANCH   5  10
HETATM   10  NAP AQD A1201     -13.932  11.709 -11.911  1.00  0.00    -0.631 NA 
HETATM   11  HAP AQD A1201     -13.177  11.902 -11.252  1.00  0.00     0.000 HD 
HETATM   12  CAA AQD A1201     -14.593  10.429 -11.899  1.00  0.00    -0.615 C  
ENDBRANCH   5  10
BRANCH   6  13
HETATM   13  CAS AQD A1201     -15.511  15.805 -15.593  1.00  0.00    -0.370 C  
HETATM   14  OAD AQD A1201     -14.895  16.843 -15.565  1.00  0.00    -0.377 OA 
HETATM   15  NAQ AQD A1201     -16.650  15.693 -16.453  1.00  0.00    -0.554 N  
HETATM   16  HAQ AQD A1201     -17.208  14.840 -16.499  1.00  0.00     0.000 HD 
BRANCH  15  17
HETATM   17  CAZ AQD A1201     -16.966  16.858 -17.254  1.00  0.00    -0.304 C  
HETATM   18  CAY AQD A1201     -17.437  16.514 -18.591  1.00  0.00    -0.263 C  
HETATM   19  CAC AQD A1201     -16.762  15.236 -19.160  1.00  0.00    -0.468 C  
HETATM   20  NBA AQD A1201     -18.813  16.299 -18.478  1.00  0.00    -0.320 NA 
HETATM   21  CAM AQD A1201     -18.099  17.568 -16.526  1.00  0.00    -0.451 C  
HETATM   22  CAN AQD A1201     -19.320  17.350 -17.578  1.00  0.00    -0.327 C  
BRANCH  20  23
HETATM   23  CAO AQD A1201     -19.378  16.320 -19.788  1.00  0.00    -0.340 C  
BRANCH  23  24
HETATM   24  CAT AQD A1201     -20.875  16.743 -19.819  1.00  0.00    -0.547 A  
HETATM   25  CAI AQD A1201     -21.222  18.005 -20.300  1.00  0.00    -0.511 A  
HETATM   26  CAG AQD A1201     -22.563  18.389 -20.332  1.00  0.00    -0.688 A  
HETATM   27  CAF AQD A1201     -23.552  17.508 -19.899  1.00  0.00    -0.789 A  
HETATM   28  CAH AQD A1201     -23.208  16.246 -19.429  1.00  0.00    -0.836 A  
HETATM   29  CAJ AQD A1201     -21.864  15.855 -19.389  1.00  0.00    -0.668 A  
ENDBRANCH  23  24
ENDBRANCH  20  23
ENDBRANCH  15  17
ENDBRANCH   6  13
ENDBRANCH   2   3
TORSDOF 6
ENDMDL
