MODEL        1
REMARK THIS MODEL IS IDENTICAL TO THE INPUT LIGAND AND NOT FROM DOCKING
REMARK 921   NORMALIZED FREE ENERGY PREDICTED BY IDOCK:  -10.47 KCAL/MOL
REMARK 922        TOTAL FREE ENERGY PREDICTED BY IDOCK:  -15.41 KCAL/MOL
REMARK 923 INTER-LIGAND FREE ENERGY PREDICTED BY IDOCK:  -14.76 KCAL/MOL
REMARK 924 INTRA-LIGAND FREE ENERGY PREDICTED BY IDOCK:   -0.65 KCAL/MOL
REMARK 927      BINDING AFFINITY PREDICTED BY RF-SCORE:    0.00 PKD
ROOT
HETATM    1  C1  73R A1201       2.612  26.418 152.427  1.00  0.00    -0.328 A  
HETATM    2  C8  73R A1201       1.437  26.676 151.767  1.00  0.00    -0.450 A  
HETATM    3  C9  73R A1201       0.200  26.476 152.385  1.00  0.00    -0.489 A  
HETATM    4  C12 73R A1201       0.140  26.002 153.708  1.00  0.00    -0.461 A  
HETATM    5  C13 73R A1201       1.316  25.729 154.406  1.00  0.00    -0.417 A  
HETATM    6  CAP 73R A1201      -1.227  25.788 154.361  1.00  0.00    -0.306 C  
HETATM    7  C2  73R A1201       2.580  25.930 153.784  1.00  0.00    -0.471 A  
HETATM    8  F32 73R A1201      -2.184  25.880 153.403  1.00  0.00    -0.333 F  
HETATM    9  F33 73R A1201      -1.277  24.556 154.929  1.00  0.00    -0.437 F  
HETATM   10  F34 73R A1201      -1.446  26.724 155.297  1.00  0.00    -0.402 F  
HETATM   11  C3  73R A1201       3.864  25.693 154.379  1.00  0.00    -0.339 A  
HETATM   12  N4  73R A1201       4.971  25.914 153.710  1.00  0.00    -0.236 NA 
HETATM   13  C5  73R A1201       4.977  26.356 152.480  1.00  0.00    -0.249 A  
HETATM   14  N6  73R A1201       3.841  26.613 151.823  1.00  0.00    -0.266 NA 
ENDROOT
BRANCH  11  15
HETATM   15  N7  73R A1201       3.907  25.196 155.767  1.00  0.00    -0.647 NA 
HETATM   16  H7  73R A1201       3.032  24.887 156.189  1.00  0.00     0.000 HD 
BRANCH  15  17
HETATM   17  C14 73R A1201       5.124  25.117 156.581  1.00  0.00    -0.414 C  
HETATM   18  C15 73R A1201       5.961  26.310 156.584  1.00  0.00    -0.188 C  
HETATM   19  O24 73R A1201       5.574  27.465 156.612  1.00  0.00    -0.614 OA 
HETATM   20  N16 73R A1201       7.367  25.918 156.574  1.00  0.00    -0.291 N  
HETATM   21  C17 73R A1201       7.513  24.396 156.556  1.00  0.00    -0.254 C  
HETATM   22  C18 73R A1201       6.059  24.119 156.055  1.00  0.00    -0.476 C  
BRANCH  20  23
HETATM   23  C26 73R A1201       8.417  26.939 156.610  1.00  0.00    -0.398 C  
HETATM   24  C31 73R A1201       9.291  27.020 155.377  1.00  0.00    -0.500 C  
HETATM   25  C30 73R A1201      10.279  25.867 155.287  1.00  0.00    -0.374 C  
HETATM   26  C28 73R A1201      10.317  25.768 157.765  1.00  0.00    -0.726 C  
HETATM   27  C27 73R A1201       9.230  26.882 157.875  1.00  0.00    -0.766 C  
HETATM   28  C29 73R A1201      11.169  25.737 156.503  1.00  0.00    -0.368 C  
BRANCH  24  29
HETATM   29  C35 73R A1201       8.415  27.098 154.135  1.00  0.00    -0.321 C  
BRANCH  29  30
HETATM   30  C36 73R A1201       8.582  28.552 153.526  1.00  0.00    -0.432 C  
HETATM   31  C37 73R A1201       7.281  29.002 152.872  1.00  0.00    -0.428 C  
ENDBRANCH  29  30
ENDBRANCH  24  29
BRANCH  28  32
HETATM   32  N38 73R A1201      11.917  24.504 156.374  1.00  0.00    -0.263 NA 
HETATM   33  C39 73R A1201      11.477  23.448 157.260  1.00  0.00    -0.347 C  
BRANCH  32  34
HETATM   34  C40 73R A1201      13.365  24.683 156.482  1.00  0.00    -0.347 C  
HETATM   35  C41 73R A1201      13.755  25.213 157.809  1.00  0.00    -0.862 C  
HETATM   36  C42 73R A1201      13.876  25.608 155.372  1.00  0.00    -0.555 C  
ENDBRANCH  32  34
ENDBRANCH  28  32
ENDBRANCH  20  23
ENDBRANCH  15  17
ENDBRANCH  11  15
TORSDOF 7
ENDMDL
