REMARK  5 active torsions:
REMARK  status: ('A' for Active; 'I' for Inactive)
REMARK    1  A    between atoms: C10_3  and  C9_4
REMARK    2  A    between atoms: C10_3  and  C11_18
REMARK    3  A    between atoms: C9_4  and  O1_5
REMARK    4  A    between atoms: C11_18  and  N2_19
REMARK    5  A    between atoms: O1_5  and  C4_6
ROOT
HETATM    1  O2  P32 A 401     -19.733 -32.246  11.169  1.00  0.00    -0.388 OA
HETATM    2  H2  P32 A 401     -20.566 -32.675  11.328  1.00  0.00     0.210 HD
HETATM    3  C10 P32 A 401     -18.799 -32.539  12.217  1.00  0.00     0.154 C
ENDROOT
BRANCH   3   4
HETATM    4  C9  P32 A 401     -19.296 -32.074  13.583  1.00  0.00     0.200 C
BRANCH   4   5
HETATM    5  O1  P32 A 401     -18.348 -32.467  14.585  1.00  0.00    -0.341 OA
BRANCH   5   6
HETATM    6  C4  P32 A 401     -18.318 -31.995  15.872  1.00  0.00     0.085 A
HETATM    7  C5  P32 A 401     -19.378 -31.305  16.454  1.00  0.00     0.033 A
HETATM    8  C6  P32 A 401     -19.323 -30.848  17.777  1.00  0.00     0.004 A
HETATM    9  C7  P32 A 401     -18.210 -31.040  18.600  1.00  0.00     0.020 A
HETATM   10  C8  P32 A 401     -17.106 -31.716  18.122  1.00  0.00     0.030 A
HETATM   11  C3  P32 A 401     -17.126 -32.221  16.719  1.00  0.00     0.025 A
HETATM   12  C2  P32 A 401     -15.914 -32.900  16.317  1.00  0.00     0.043 A
HETATM   13  C1  P32 A 401     -15.280 -32.699  17.670  1.00  0.00     0.099 A
HETATM   14  N1  P32 A 401     -15.908 -32.042  18.669  1.00  0.00    -0.249 NA
HETATM   15  C16 P32 A 401     -14.036 -33.144  17.924  1.00  0.00     0.111 C
HETATM   16  N3  P32 A 401     -12.956 -33.547  18.100  1.00  0.00    -0.190 NA
HETATM   17  H1  P32 A 401     -15.564 -31.840  19.608  1.00  0.00     0.134 HD
ENDBRANCH   5   6
ENDBRANCH   4   5
ENDBRANCH   3   4
BRANCH   3  18
HETATM   18  C11 P32 A 401     -17.462 -31.850  11.962  1.00  0.00     0.115 C
BRANCH  18  19
HETATM   19  N2  P32 A 401     -17.035 -32.025  10.589  1.00  0.00    -0.309 NA
HETATM   20  H2  P32 A 401     -17.655 -32.501   9.934  1.00  0.00     0.123 HD
HETATM   21  C14 P32 A 401     -15.502 -32.201   8.757  1.00  0.00     0.027 C
HETATM   22  C12 P32 A 401     -15.748 -31.541  10.120  1.00  0.00     0.011 C
HETATM   23  C13 P32 A 401     -15.758 -30.020   9.962  1.00  0.00     0.027 C
HETATM   24  C15 P32 A 401     -14.624 -31.917  11.096  1.00  0.00     0.027 C
ENDBRANCH  18  19
ENDBRANCH   3  18
TORSDOF 5
