MODEL        1
REMARK THIS MODEL IS IDENTICAL TO THE INPUT LIGAND AND NOT FROM DOCKING
REMARK 921   NORMALIZED FREE ENERGY PREDICTED BY IDOCK:  -11.03 KCAL/MOL
REMARK 922        TOTAL FREE ENERGY PREDICTED BY IDOCK:  -11.95 KCAL/MOL
REMARK 923 INTER-LIGAND FREE ENERGY PREDICTED BY IDOCK:  -12.32 KCAL/MOL
REMARK 924 INTRA-LIGAND FREE ENERGY PREDICTED BY IDOCK:    0.37 KCAL/MOL
REMARK 927      BINDING AFFINITY PREDICTED BY RF-SCORE:    0.00 PKD
ROOT
HETATM    1  C10 DLB A 407    -355.801-167.316 148.475  1.00  0.00    -0.324 A  
HETATM    2  C9  DLB A 407    -354.727-166.708 147.600  1.00  0.00    -0.346 C  
HETATM    3  C15 DLB A 407    -356.897-167.956 147.885  1.00  0.00    -0.418 A  
HETATM    4  C17 DLB A 407    -353.374-167.482 147.776  1.00  0.00    -0.337 C  
HETATM    5  C7  DLB A 407    -354.550-165.210 147.897  1.00  0.00    -0.333 C  
HETATM    6  C14 DLB A 407    -357.882-168.520 148.679  1.00  0.00    -0.630 A  
HETATM    7  C19 DLB A 407    -353.617-169.009 147.765  1.00  0.00    -0.459 C  
HETATM    8  N6  DLB A 407    -355.615-164.323 147.773  1.00  0.00    -0.300 N  
HETATM    9  C18 DLB A 407    -352.331-167.110 146.699  1.00  0.00    -0.412 C  
HETATM   10  O8  DLB A 407    -353.460-164.745 148.230  1.00  0.00    -0.292 OA 
HETATM   11  C13 DLB A 407    -357.752-168.425 150.049  1.00  0.00    -0.323 A  
HETATM   12  C12 DLB A 407    -356.681-167.789 150.668  1.00  0.00    -0.316 A  
HETATM   13  C1  DLB A 407    -357.018-164.668 147.396  1.00  0.00    -0.343 C  
HETATM   14 CL   DLB A 407    -358.980-169.131 151.029  1.00  0.00    -0.750 Cl 
HETATM   15  C11 DLB A 407    -355.703-167.224 149.865  1.00  0.00    -0.446 A  
HETATM   16  C2  DLB A 407    -357.846-163.517 146.847  1.00  0.00    -0.577 C  
HETATM   17  C3  DLB A 407    -357.748-162.309 147.768  1.00  0.00    -0.304 C  
HETATM   18  C4  DLB A 407    -356.556-162.302 148.729  1.00  0.00    -0.332 C  
HETATM   19  O20 DLB A 407    -358.902-162.183 148.576  1.00  0.00    -0.409 OA 
HETATM   20  C5  DLB A 407    -355.353-162.917 148.066  1.00  0.00     0.031 C  
HETATM   21  C21 DLB A 407    -359.453-160.979 148.249  1.00  0.00    -0.380 A  
HETATM   22  C22 DLB A 407    -358.685-160.366 147.247  1.00  0.00    -0.336 A  
HETATM   23  O23 DLB A 407    -357.642-161.170 146.936  1.00  0.00    -0.362 OA 
HETATM   24  C24 DLB A 407    -358.990-159.151 146.709  1.00  0.00    -0.450 A  
HETATM   25  C25 DLB A 407    -360.135-158.540 147.223  1.00  0.00    -0.573 A  
HETATM   26  C27 DLB A 407    -360.569-160.391 148.754  1.00  0.00    -0.598 A  
HETATM   27  C26 DLB A 407    -360.889-159.140 148.206  1.00  0.00    -0.305 A  
ENDROOT
BRANCH  25  28
HETATM   28  C28 DLB A 407    -360.533-157.203 146.684  1.00  0.00    -0.338 C  
BRANCH  28  29
HETATM   29  C29 DLB A 407    -360.193-156.149 147.753  1.00  0.00    -0.495 C  
HETATM   30  C30 DLB A 407    -358.710-155.902 147.835  1.00  0.00    -0.162 C  
HETATM   31  O31 DLB A 407    -358.042-156.884 148.495  1.00  0.00    -0.393 OA 
HETATM   32  O32 DLB A 407    -358.084-154.947 147.399  1.00  0.00    -0.307 OA 
ENDBRANCH  28  29
ENDBRANCH  25  28
TORSDOF 2
ENDMDL
