MODEL        1
REMARK THIS MODEL IS IDENTICAL TO THE INPUT LIGAND AND NOT FROM DOCKING
REMARK 921   NORMALIZED FREE ENERGY PREDICTED BY IDOCK:   -5.88 KCAL/MOL
REMARK 922        TOTAL FREE ENERGY PREDICTED BY IDOCK:   -7.66 KCAL/MOL
REMARK 923 INTER-LIGAND FREE ENERGY PREDICTED BY IDOCK:   -7.25 KCAL/MOL
REMARK 924 INTRA-LIGAND FREE ENERGY PREDICTED BY IDOCK:   -0.41 KCAL/MOL
REMARK 927      BINDING AFFINITY PREDICTED BY RF-SCORE:    0.00 PKD
ROOT
HETATM    1  C1  RET A1000      19.347  44.696  60.681  1.00  0.00    -0.629 C  
HETATM    2  C17 RET A1000      19.338  43.728  59.453  1.00  0.00    -0.841 C  
HETATM    3  C6  RET A1000      17.919  44.812  61.354  1.00  0.00    -0.616 C  
HETATM    4  C16 RET A1000      19.793  46.052  60.134  1.00  0.00    -0.998 C  
HETATM    5  C5  RET A1000      17.694  44.428  62.652  1.00  0.00    -0.763 C  
HETATM    6  C2  RET A1000      20.446  44.147  61.635  1.00  0.00    -0.929 C  
HETATM    7  C18 RET A1000      16.393  44.487  63.409  1.00  0.00    -0.984 C  
HETATM    8  C4  RET A1000      18.792  43.853  63.548  1.00  0.00    -1.101 C  
HETATM    9  C3  RET A1000      19.955  43.239  62.750  1.00  0.00    -1.096 C  
ENDROOT
BRANCH   3  10
HETATM   10  C7  RET A1000      16.815  45.369  60.466  1.00  0.00    -0.621 C  
HETATM   11  C8  RET A1000      15.757  44.613  59.937  1.00  0.00    -0.656 C  
BRANCH  11  12
HETATM   12  C9  RET A1000      14.583  44.987  59.136  1.00  0.00    -0.547 C  
HETATM   13  C10 RET A1000      13.789  43.946  58.854  1.00  0.00    -0.655 C  
HETATM   14  C19 RET A1000      14.340  46.431  58.745  1.00  0.00    -0.701 C  
BRANCH  13  15
HETATM   15  C11 RET A1000      12.521  43.872  58.161  1.00  0.00    -0.645 C  
HETATM   16  C12 RET A1000      11.764  42.761  57.909  1.00  0.00    -0.669 C  
BRANCH  16  17
HETATM   17  C13 RET A1000      11.958  41.271  58.097  1.00  0.00    -0.606 C  
HETATM   18  C14 RET A1000      10.936  40.408  57.813  1.00  0.00     0.645 C  
HETATM   19  C20 RET A1000      13.340  40.807  58.608  1.00  0.00    -0.703 C  
HETATM   20  C15 RET A1000      11.049  38.951  57.951  1.00  0.00     5.865 C  
ENDBRANCH  16  17
ENDBRANCH  13  15
ENDBRANCH  11  12
ENDBRANCH   3  10
TORSDOF 4
ENDMDL
