MODEL        1
REMARK THIS MODEL IS IDENTICAL TO THE INPUT LIGAND AND NOT FROM DOCKING
REMARK 921   NORMALIZED FREE ENERGY PREDICTED BY IDOCK:  -11.43 KCAL/MOL
REMARK 922        TOTAL FREE ENERGY PREDICTED BY IDOCK:  -24.06 KCAL/MOL
REMARK 923 INTER-LIGAND FREE ENERGY PREDICTED BY IDOCK:  -20.12 KCAL/MOL
REMARK 924 INTRA-LIGAND FREE ENERGY PREDICTED BY IDOCK:   -3.94 KCAL/MOL
REMARK 927      BINDING AFFINITY PREDICTED BY RF-SCORE:    0.00 PKD
ROOT
HETATM    1  C1  UKA A1201     -21.280  -8.932   6.960  1.00  0.00    -0.403 C  
HETATM    2  O3  UKA A1201     -21.248 -10.290   6.533  1.00  0.00    -0.634 OA 
HETATM    3  C2  UKA A1201     -21.014  -7.953   5.816  1.00  0.00    -0.453 C  
HETATM    4  O2  UKA A1201     -21.615  -8.387   4.602  1.00  0.00    -0.866 OA 
HETATM    5  H3  UKA A1201     -21.413 -10.898   7.244  1.00  0.00     0.000 HD 
HETATM    6  C3  UKA A1201     -19.486  -7.998   5.720  1.00  0.00    -0.447 C  
HETATM    7  H2  UKA A1201     -22.563  -8.359   4.662  1.00  0.00     0.000 HD 
HETATM    8  C4  UKA A1201     -20.101  -8.637   7.883  1.00  0.00    -0.425 C  
HETATM    9  O1  UKA A1201     -19.026  -8.227   7.059  1.00  0.00    -0.435 OA 
ENDROOT
BRANCH   6  10
HETATM   10  C5  UKA A1201     -19.019  -6.642   5.206  1.00  0.00    -0.287 C  
HETATM   11  O4  UKA A1201     -19.446  -5.602   5.701  1.00  0.00    -0.627 OA 
HETATM   12  N2  UKA A1201     -18.137  -6.671   4.207  1.00  0.00    -0.589 N  
HETATM   13  H2  UKA A1201     -17.831  -7.581   3.863  1.00  0.00     0.000 HD 
BRANCH  12  14
HETATM   14  C6  UKA A1201     -17.583  -5.475   3.575  1.00  0.00    -0.509 C  
HETATM   15  C7  UKA A1201     -16.844  -5.806   2.319  1.00  0.00    -0.360 C  
ENDBRANCH  12  14
ENDBRANCH   6  10
BRANCH   8  16
HETATM   16  N1  UKA A1201     -20.358  -7.587   8.863  1.00  0.00    -0.470 NA 
HETATM   17  C10 UKA A1201     -20.965  -7.736  10.087  1.00  0.00    -0.351 A  
HETATM   18  N5  UKA A1201     -21.488  -8.849  10.603  1.00  0.00    -0.396 NA 
HETATM   19  C12 UKA A1201     -22.003  -8.677  11.824  1.00  0.00    -0.105 A  
HETATM   20  C8  UKA A1201     -20.002  -6.267   8.787  1.00  0.00    -0.454 A  
HETATM   21  N4  UKA A1201     -21.992  -7.529  12.517  1.00  0.00    -0.342 NA 
HETATM   22  C11 UKA A1201     -21.449  -6.414  11.993  1.00  0.00    -0.151 A  
HETATM   23  N3  UKA A1201     -20.311  -5.566   9.851  1.00  0.00    -0.645 NA 
HETATM   24  C9  UKA A1201     -20.916  -6.495  10.687  1.00  0.00    -0.057 A  
BRANCH  19  25
HETATM   25  C27 UKA A1201     -22.712  -9.894  12.377  1.00  0.00    -0.203 C  
HETATM   26  O5  UKA A1201     -22.682 -10.965  11.776  1.00  0.00    -0.423 OA 
HETATM   27  H7  UKA A1201     -23.348  -8.810  13.975  1.00  0.00     0.000 HD 
HETATM   28  N7  UKA A1201     -23.343  -9.733  13.541  1.00  0.00    -0.371 N  
BRANCH  28  29
HETATM   29  C28 UKA A1201     -24.025 -10.828  14.214  1.00  0.00    -0.451 C  
BRANCH  29  30
HETATM   30  C29 UKA A1201     -23.407 -11.111  15.566  1.00  0.00    -0.526 C  
BRANCH  30  31
HETATM   31  N8  UKA A1201     -23.411  -9.928  16.415  1.00  0.00    -0.563 N  
HETATM   32  H8  UKA A1201     -22.583  -9.333  16.442  1.00  0.00     0.000 HD 
BRANCH  31  33
HETATM   33  C30 UKA A1201     -24.479  -9.600  17.165  1.00  0.00    -0.337 C  
HETATM   34  O6  UKA A1201     -25.544 -10.208  17.095  1.00  0.00    -0.454 OA 
BRANCH  33  35
HETATM   35  N9  UKA A1201     -24.284  -8.553  18.001  1.00  0.00    -0.446 N  
HETATM   36  H9  UKA A1201     -23.376  -8.089  18.000  1.00  0.00     0.000 HD 
BRANCH  35  37
HETATM   37  C31 UKA A1201     -25.321  -8.060  18.904  1.00  0.00    -0.159 C  
HETATM   38  N10 UKA A1201     -26.547  -5.960  20.473  1.00  0.00    -0.116 NA 
HETATM   39  C34 UKA A1201     -27.165  -6.414  19.224  1.00  0.00    -0.183 C  
HETATM   40  C35 UKA A1201     -26.116  -6.945  18.256  1.00  0.00    -0.207 C  
HETATM   41  C33 UKA A1201     -25.800  -7.038  21.128  1.00  0.00    -0.085 C  
HETATM   42  C32 UKA A1201     -24.714  -7.589  20.212  1.00  0.00    -0.142 C  
BRANCH  38  43
HETATM   43  C40 UKA A1201     -26.265  -4.634  20.712  1.00  0.00    -0.119 A  
HETATM   44  N11 UKA A1201     -25.285  -4.387  21.593  1.00  0.00    -0.092 NA 
HETATM   45  C39 UKA A1201     -24.998  -3.104  21.856  1.00  0.00    -0.101 A  
HETATM   46  C38 UKA A1201     -25.648  -2.041  21.273  1.00  0.00     0.047 A  
HETATM   47  C37 UKA A1201     -26.648  -2.309  20.371  1.00  0.00    -0.024 A  
HETATM   48  C36 UKA A1201     -26.978  -3.618  20.072  1.00  0.00    -0.231 A  
ENDBRANCH  38  43
ENDBRANCH  35  37
ENDBRANCH  33  35
ENDBRANCH  31  33
ENDBRANCH  30  31
ENDBRANCH  29  30
ENDBRANCH  28  29
ENDBRANCH  19  25
BRANCH  22  49
HETATM   49  N6  UKA A1201     -21.364  -5.304  12.743  1.00  0.00    -0.562 NA 
HETATM   50  H6  UKA A1201     -21.090  -4.434  12.287  1.00  0.00     0.000 HD 
BRANCH  49  51
HETATM   51  C13 UKA A1201     -21.642  -5.276  14.170  1.00  0.00    -0.294 C  
HETATM   52  C19 UKA A1201     -23.379  -3.457  18.632  1.00  0.00    -0.219 A  
HETATM   53  C14 UKA A1201     -22.950  -4.552  14.488  1.00  0.00    -0.319 C  
HETATM   54  C23 UKA A1201     -25.932  -5.831  12.497  1.00  0.00    -0.562 A  
HETATM   55  C17 UKA A1201     -22.184  -4.610  16.909  1.00  0.00    -0.412 A  
HETATM   56  C15 UKA A1201     -23.078  -4.150  15.952  1.00  0.00    -0.268 A  
HETATM   57  C24 UKA A1201     -26.308  -6.935  13.229  1.00  0.00    -0.572 A  
HETATM   58  C16 UKA A1201     -24.140  -5.389  14.043  1.00  0.00    -0.345 A  
HETATM   59  C26 UKA A1201     -24.531  -6.503  14.773  1.00  0.00    -0.286 A  
HETATM   60  C18 UKA A1201     -22.335  -4.265  18.240  1.00  0.00    -0.333 A  
HETATM   61  C21 UKA A1201     -24.121  -3.331  16.361  1.00  0.00    -0.391 A  
HETATM   62  C22 UKA A1201     -24.855  -5.061  12.900  1.00  0.00    -0.548 A  
HETATM   63  C25 UKA A1201     -25.608  -7.270  14.366  1.00  0.00    -0.450 A  
HETATM   64  C20 UKA A1201     -24.269  -2.989  17.693  1.00  0.00    -0.367 A  
ENDBRANCH  49  51
ENDBRANCH  22  49
ENDBRANCH   8  16
TORSDOF 13
ENDMDL
