MODEL        1
REMARK THIS MODEL IS IDENTICAL TO THE INPUT LIGAND AND NOT FROM DOCKING
REMARK 921   NORMALIZED FREE ENERGY PREDICTED BY IDOCK:   -6.63 KCAL/MOL
REMARK 922        TOTAL FREE ENERGY PREDICTED BY IDOCK:  -11.12 KCAL/MOL
REMARK 923 INTER-LIGAND FREE ENERGY PREDICTED BY IDOCK:  -10.50 KCAL/MOL
REMARK 924 INTRA-LIGAND FREE ENERGY PREDICTED BY IDOCK:   -0.61 KCAL/MOL
REMARK 927      BINDING AFFINITY PREDICTED BY RF-SCORE:    0.00 PKD
ROOT
HETATM    1  C1  BNG A 407      13.177 -45.507 -36.092  1.00  0.00    -0.391 C  
HETATM    2  O5  BNG A 407      14.294 -45.595 -36.987  1.00  0.00    -0.477 OA 
HETATM    3  O2  BNG A 407      12.090 -44.190 -34.382  1.00  0.00    -0.383 OA 
HETATM    4  C2  BNG A 407      13.279 -44.290 -35.178  1.00  0.00    -0.351 C  
HETATM    5  C5  BNG A 407      14.521 -44.424 -37.782  1.00  0.00    -0.405 C  
HETATM    6  C4  BNG A 407      14.676 -43.182 -36.909  1.00  0.00    -0.374 C  
HETATM    7  H3  BNG A 407      13.793 -41.115 -35.625  1.00  0.00     0.000 HD 
HETATM    8  H4  BNG A 407      15.560 -42.120 -38.306  1.00  0.00     0.000 HD 
HETATM    9  O3  BNG A 407      13.673 -41.908 -35.115  1.00  0.00    -0.420 OA 
HETATM   10  C3  BNG A 407      13.471 -43.021 -35.994  1.00  0.00    -0.320 C  
HETATM   11  O4  BNG A 407      14.808 -42.019 -37.735  1.00  0.00    -0.408 OA 
HETATM   12  H2  BNG A 407      12.154 -43.432 -33.813  1.00  0.00     0.000 HD 
ENDROOT
BRANCH   1  13
HETATM   13  O1  BNG A 407      13.079 -46.682 -35.286  1.00  0.00    -0.306 OA 
BRANCH  13  14
HETATM   14  C1' BNG A 407      11.927 -47.466 -35.592  1.00  0.00    -0.418 C  
BRANCH  14  15
HETATM   15  C2' BNG A 407      11.671 -48.411 -34.425  1.00  0.00    -0.729 C  
BRANCH  15  16
HETATM   16  C3' BNG A 407      10.328 -48.147 -33.755  1.00  0.00    -0.595 C  
BRANCH  16  17
HETATM   17  C4' BNG A 407       9.217 -48.933 -34.441  1.00  0.00    -0.786 C  
BRANCH  17  18
HETATM   18  C5' BNG A 407       8.133 -49.334 -33.445  1.00  0.00    -0.665 C  
BRANCH  18  19
HETATM   19  C6' BNG A 407       7.213 -48.166 -33.114  1.00  0.00    -0.557 C  
BRANCH  19  20
HETATM   20  C7' BNG A 407       6.184 -47.957 -34.218  1.00  0.00    -0.726 C  
BRANCH  20  21
HETATM   21  C8' BNG A 407       5.515 -46.596 -34.079  1.00  0.00    -0.786 C  
HETATM   22  C9' BNG A 407       6.544 -45.490 -34.162  1.00  0.00    -0.635 C  
ENDBRANCH  20  21
ENDBRANCH  19  20
ENDBRANCH  18  19
ENDBRANCH  17  18
ENDBRANCH  16  17
ENDBRANCH  15  16
ENDBRANCH  14  15
ENDBRANCH  13  14
ENDBRANCH   1  13
BRANCH   5  23
HETATM   23  C6  BNG A 407      15.764 -44.638 -38.641  1.00  0.00    -0.391 C  
HETATM   24  H6  BNG A 407      17.643 -45.142 -38.342  1.00  0.00     0.000 HD 
HETATM   25  O6  BNG A 407      16.869 -45.009 -37.807  1.00  0.00    -0.381 OA 
ENDBRANCH   5  23
TORSDOF 10
ENDMDL
