MODEL        1
REMARK THIS MODEL IS IDENTICAL TO THE INPUT LIGAND AND NOT FROM DOCKING
REMARK 921   NORMALIZED FREE ENERGY PREDICTED BY IDOCK:   -8.74 KCAL/MOL
REMARK 922        TOTAL FREE ENERGY PREDICTED BY IDOCK:  -10.81 KCAL/MOL
REMARK 923 INTER-LIGAND FREE ENERGY PREDICTED BY IDOCK:  -10.28 KCAL/MOL
REMARK 924 INTRA-LIGAND FREE ENERGY PREDICTED BY IDOCK:   -0.54 KCAL/MOL
REMARK 927      BINDING AFFINITY PREDICTED BY RF-SCORE:    0.00 PKD
ROOT
HETATM    1  C5' NEC A 400      -3.969 -41.658  19.108  1.00  0.00    -0.392 C  
HETATM    2  N5' NEC A 400      -4.509 -41.284  17.948  1.00  0.00    -0.649 N  
HETATM    3  O5' NEC A 400      -2.768 -41.854  19.243  1.00  0.00    -0.708 OA 
HETATM    4  H5' NEC A 400      -5.513 -41.110  17.902  1.00  0.00     0.000 HD 
ENDROOT
BRANCH   1   5
HETATM    5  C4' NEC A 400      -4.932 -41.860  20.245  1.00  0.00    -0.413 C  
HETATM    6  O3' NEC A 400      -4.939 -40.291  22.133  1.00  0.00    -0.728 OA 
HETATM    7  O4' NEC A 400      -5.278 -43.248  20.254  1.00  0.00    -0.364 OA 
HETATM    8  C1' NEC A 400      -4.996 -43.848  21.526  1.00  0.00    -0.383 C  
HETATM    9  H2' NEC A 400      -6.096 -43.242  23.860  1.00  0.00     0.000 HD 
HETATM   10  C2' NEC A 400      -4.722 -42.709  22.499  1.00  0.00    -0.389 C  
HETATM   11  H3' NEC A 400      -4.595 -40.074  22.992  1.00  0.00     0.000 HD 
HETATM   12  O2' NEC A 400      -5.882 -42.493  23.316  1.00  0.00    -0.657 OA 
HETATM   13  C3' NEC A 400      -4.379 -41.510  21.627  1.00  0.00    -0.413 C  
BRANCH   8  14
HETATM   14  N9  NEC A 400      -3.829 -44.778  21.459  1.00  0.00    -0.458 NA 
HETATM   15  C8  NEC A 400      -2.918 -44.901  20.465  1.00  0.00    -0.396 A  
HETATM   16  C5  NEC A 400      -2.325 -46.356  21.964  1.00  0.00    -0.061 A  
HETATM   17  N7  NEC A 400      -2.003 -45.856  20.763  1.00  0.00    -0.620 NA 
HETATM   18  C4  NEC A 400      -3.529 -45.650  22.418  1.00  0.00    -0.262 A  
HETATM   19  N3  NEC A 400      -4.071 -45.964  23.620  1.00  0.00    -0.473 NA 
HETATM   20  C2  NEC A 400      -3.532 -46.922  24.400  1.00  0.00    -0.333 A  
HETATM   21  N1  NEC A 400      -2.429 -47.617  24.045  1.00  0.00    -0.389 NA 
HETATM   22  C6  NEC A 400      -1.785 -47.394  22.871  1.00  0.00    -0.331 A  
HETATM   23  N6  NEC A 400      -0.678 -48.091  22.524  1.00  0.00    -0.773 NA 
HETATM   24  H61 NEC A 400      -0.306 -48.806  23.149  1.00  0.00     0.000 HD 
HETATM   25  H62 NEC A 400      -0.215 -47.901  21.635  1.00  0.00     0.000 HD 
ENDBRANCH   8  14
ENDBRANCH   1   5
BRANCH   2  26
HETATM   26  C51 NEC A 400      -3.709 -41.117  16.750  1.00  0.00    -0.490 C  
HETATM   27  C52 NEC A 400      -4.549 -40.861  15.524  1.00  0.00    -0.595 C  
ENDBRANCH   2  26
TORSDOF 3
ENDMDL
