REMARK  6 active torsions:
REMARK  status: ('A' for Active; 'I' for Inactive)
REMARK    1  A    between atoms: C16_2  and  C15_4
REMARK    2  A    between atoms: C16_2  and  C18_20
REMARK    3  A    between atoms: C15_4  and  O14_5
REMARK    4  A    between atoms: C18_20  and  N19_21
REMARK    5  A    between atoms: O14_5  and  C13_6
REMARK    6  A    between atoms: N19_21  and  C20_23
ROOT
HETATM    1  O17 CAU A1208      19.648  10.509   8.237  1.00  0.00    -0.388 OA
HETATM    2  C16 CAU A1208      20.857   9.817   8.189  1.00  0.00     0.154 C
HETATM    3  H17 CAU A1208      19.756  11.344   8.677  1.00  0.00     0.210 HD
ENDROOT
BRANCH   2   4
HETATM    4  C15 CAU A1208      21.903  10.633   7.426  1.00  0.00     0.200 C
BRANCH   4   5
HETATM    5  O14 CAU A1208      23.107   9.855   7.441  1.00  0.00    -0.341 OA
BRANCH   5   6
HETATM    6  C13 CAU A1208      24.253  10.376   6.754  1.00  0.00     0.086 A
HETATM    7  C12 CAU A1208      24.190  11.644   6.192  1.00  0.00     0.033 A
HETATM    8  C9  CAU A1208      25.436   9.621   6.655  1.00  0.00     0.032 A
HETATM    9  C11 CAU A1208      25.305  12.158   5.526  1.00  0.00     0.004 A
HETATM   10  C10 CAU A1208      26.474  11.407   5.428  1.00  0.00     0.021 A
HETATM   11  C4  CAU A1208      25.754   8.348   7.126  1.00  0.00     0.004 A
HETATM   12  C5  CAU A1208      25.007   7.407   7.849  1.00  0.00     0.010 A
HETATM   13  C6  CAU A1208      25.574   6.188   8.198  1.00  0.00     0.001 A
HETATM   14  C1  CAU A1208      26.886   5.907   7.828  1.00  0.00     0.002 A
HETATM   15  C2  CAU A1208      27.625   6.839   7.112  1.00  0.00     0.020 A
HETATM   16  C3  CAU A1208      27.050   8.071   6.759  1.00  0.00     0.028 A
HETATM   17  N7  CAU A1208      27.539   9.166   6.062  1.00  0.00    -0.257 NA
HETATM   18  C8  CAU A1208      26.535  10.124   6.001  1.00  0.00     0.030 A
HETATM   19  H7  CAU A1208      28.474   9.253   5.663  1.00  0.00     0.134 HD
ENDBRANCH   5   6
ENDBRANCH   4   5
ENDBRANCH   2   4
BRANCH   2  20
HETATM   20  C18 CAU A1208      20.684   8.479   7.485  1.00  0.00     0.114 C
BRANCH  20  21
HETATM   21  N19 CAU A1208      19.374   7.912   7.775  1.00  0.00    -0.311 NA
HETATM   22  H19 CAU A1208      18.642   8.340   7.209  1.00  0.00     0.122 HD
BRANCH  21  23
HETATM   23  C20 CAU A1208      19.399   6.467   7.622  1.00  0.00     0.048 C
HETATM   24  C22 CAU A1208      18.042   5.898   8.008  1.00  0.00     0.023 C
HETATM   25  C21 CAU A1208      19.707   6.102   6.175  1.00  0.00     0.023 C
ENDBRANCH  21  23
ENDBRANCH  20  21
ENDBRANCH   2  20
TORSDOF 6
