REMARK 11 active torsions:
REMARK  status: ('A' for Active; 'I' for Inactive)
REMARK    1  A    between atoms: C9_14  and  C10_15
REMARK    2  A    between atoms: C10_15  and  C11_18
REMARK    3  A    between atoms: C11_18  and  N2_19
REMARK    4  A    between atoms: N2_19  and  C12_21
REMARK    5  A    between atoms: C12_21  and  C13_22
REMARK    6  A    between atoms: C13_22  and  C14_23
REMARK    7  A    between atoms: C18_25  and  O4_29
REMARK    8  A    between atoms: C17_26  and  O5_31
REMARK    9  A    between atoms: O5_31  and  C21_32
REMARK   10  A    between atoms: C21_32  and  C22_33
REMARK   11  A    between atoms: C22_33  and  C23_34
ROOT
HETATM    1  C1  ERC A1201      16.744   6.627  14.839  1.00  0.00     0.229 C
HETATM    2  O1  ERC A1201      16.123   6.418  15.904  1.00  0.00    -0.274 OA
HETATM    3  C2  ERC A1201      16.202   7.506  13.893  1.00  0.00     0.064 C
HETATM    4  C3  ERC A1201      16.870   7.769  12.695  1.00  0.00     0.015 C
HETATM    5  C4  ERC A1201      18.083   7.128  12.457  1.00  0.00     0.001 A
HETATM    6  C5  ERC A1201      18.615   6.204  13.495  1.00  0.00     0.060 A
HETATM    7  N1  ERC A1201      17.920   6.004  14.627  1.00  0.00    -0.222 N
HETATM    8  C6  ERC A1201      19.918   5.529  13.230  1.00  0.00     0.091 A
HETATM    9  O2  ERC A1201      20.449   4.675  14.148  1.00  0.00    -0.358 OA
HETATM   10  H1  ERC A1201      18.288   5.371  15.337  1.00  0.00     0.137 HD
HETATM   11  C7  ERC A1201      20.594   5.781  12.034  1.00  0.00     0.034 A
HETATM   12  H2  ERC A1201      21.279   4.245  13.979  1.00  0.00     0.217 HD
HETATM   13  C8  ERC A1201      20.089   6.645  11.055  1.00  0.00     0.009 A
HETATM   14  C9  ERC A1201      18.886   7.343  11.217  1.00  0.00    -0.009 A
ENDROOT
BRANCH  14  15
HETATM   15  C10 ERC A1201      18.374   8.233  10.148  1.00  0.00     0.159 C
HETATM   16  O3  ERC A1201      19.433   8.718   9.313  1.00  0.00    -0.386 OA
HETATM   17  H3  ERC A1201      20.055   9.207   9.838  1.00  0.00     0.210 HD
BRANCH  15  18
HETATM   18  C11 ERC A1201      17.377   7.449   9.306  1.00  0.00     0.117 C
BRANCH  18  19
HETATM   19  N2  ERC A1201      16.595   8.351   8.486  1.00  0.00    -0.313 NA
HETATM   20  H2  ERC A1201      16.944   9.284   8.268  1.00  0.00     0.122 HD
BRANCH  19  21
HETATM   21  C12 ERC A1201      15.312   7.912   7.979  1.00  0.00     0.085 C
BRANCH  21  22
HETATM   22  C13 ERC A1201      15.234   7.998   6.461  1.00  0.00     0.050 C
BRANCH  22  23
HETATM   23  C14 ERC A1201      14.390   9.188   6.071  1.00  0.00    -0.044 A
HETATM   24  C19 ERC A1201      14.959  10.232   5.341  1.00  0.00     0.039 A
HETATM   25  C18 ERC A1201      14.182  11.331   4.972  1.00  0.00     0.106 A
HETATM   26  C17 ERC A1201      12.838  11.387   5.332  1.00  0.00     0.106 A
HETATM   27  C15 ERC A1201      13.043   9.243   6.434  1.00  0.00     0.006 A
HETATM   28  C16 ERC A1201      12.268  10.345   6.067  1.00  0.00     0.036 A
BRANCH  25  29
HETATM   29  O4  ERC A1201      14.751  12.345   4.248  1.00  0.00    -0.345 OA
HETATM   30  C20 ERC A1201      14.982  12.166   2.852  1.00  0.00     0.202 C
ENDBRANCH  25  29
BRANCH  26  31
HETATM   31  O5  ERC A1201      12.068  12.466   4.982  1.00  0.00    -0.342 OA
BRANCH  31  32
HETATM   32  C21 ERC A1201      11.626  12.627   3.636  1.00  0.00     0.168 C
BRANCH  32  33
HETATM   33  C22 ERC A1201      10.153  12.248   3.534  1.00  0.00     0.039 C
BRANCH  33  34
HETATM   34  C23 ERC A1201       9.965  10.735   3.561  1.00  0.00     0.068 C
HETATM   35  S1  ERC A1201      10.549  10.024   2.057  1.00  0.00    -0.178 SA
HETATM   36  H1  ERC A1201      10.378   8.645   2.082  1.00  0.00     0.102 H
ENDBRANCH  33  34
ENDBRANCH  32  33
ENDBRANCH  31  32
ENDBRANCH  26  31
ENDBRANCH  22  23
ENDBRANCH  21  22
ENDBRANCH  19  21
ENDBRANCH  18  19
ENDBRANCH  15  18
ENDBRANCH  14  15
TORSDOF 11
