MODEL        1
REMARK THIS MODEL IS IDENTICAL TO THE INPUT LIGAND AND NOT FROM DOCKING
REMARK 921   NORMALIZED FREE ENERGY PREDICTED BY IDOCK:  -10.90 KCAL/MOL
REMARK 922        TOTAL FREE ENERGY PREDICTED BY IDOCK:  -19.74 KCAL/MOL
REMARK 923 INTER-LIGAND FREE ENERGY PREDICTED BY IDOCK:  -17.27 KCAL/MOL
REMARK 924 INTRA-LIGAND FREE ENERGY PREDICTED BY IDOCK:   -2.48 KCAL/MOL
REMARK 927      BINDING AFFINITY PREDICTED BY RF-SCORE:    0.00 PKD
ROOT
HETATM    1  C30 ON9 A2001       1.461 -24.928  46.339  1.00  0.00    -0.698 C  
HETATM    2  C29 ON9 A2001       0.704 -24.102  47.344  1.00  0.00    -0.394 C  
HETATM    3  O6  ON9 A2001       0.658 -22.884  47.272  1.00  0.00    -0.586 OA 
ENDROOT
BRANCH   2   4
HETATM    4  C1  ON9 A2001       0.020 -24.853  48.454  1.00  0.00    -0.398 A  
HETATM    5  C2  ON9 A2001      -1.102 -25.700  48.200  1.00  0.00    -0.353 A  
HETATM    6  C   ON9 A2001       0.440 -24.710  49.819  1.00  0.00    -0.361 A  
HETATM    7  C3  ON9 A2001      -1.770 -26.355  49.261  1.00  0.00    -0.379 A  
HETATM    8  C5  ON9 A2001      -0.248 -25.356  50.878  1.00  0.00    -0.137 A  
HETATM    9  C4  ON9 A2001      -1.364 -26.168  50.592  1.00  0.00    -0.277 A  
BRANCH   5  10
HETATM   10  O5  ON9 A2001      -1.546 -25.897  46.884  1.00  0.00    -0.319 OA 
HETATM   11  C28 ON9 A2001      -2.932 -26.050  46.634  1.00  0.00    -0.410 C  
ENDBRANCH   5  10
BRANCH   9  12
HETATM   12  C6  ON9 A2001      -2.232 -26.808  51.674  1.00  0.00    -0.329 C  
HETATM   13  C7  ON9 A2001      -3.176 -25.785  52.445  1.00  0.00    -0.334 C  
HETATM   14  O4  ON9 A2001      -1.389 -27.515  52.540  1.00  0.00    -0.656 OA 
HETATM   15  C18 ON9 A2001      -3.863 -26.448  53.696  1.00  0.00    -0.379 C  
HETATM   16  C8  ON9 A2001      -4.219 -25.115  51.525  1.00  0.00    -0.263 C  
HETATM   17  H4  ON9 A2001      -0.825 -28.126  52.080  1.00  0.00     0.000 HD 
BRANCH  16  18
HETATM   18  C9  ON9 A2001      -4.247 -23.570  51.376  1.00  0.00    -0.446 C  
HETATM   19  C10 ON9 A2001      -2.961 -22.923  50.776  1.00  0.00    -0.624 C  
HETATM   20  C11 ON9 A2001      -3.272 -22.754  49.327  1.00  0.00    -0.461 A  
HETATM   21  C13 ON9 A2001      -5.356 -23.221  50.354  1.00  0.00    -0.576 C  
HETATM   22  C17 ON9 A2001      -2.404 -22.428  48.278  1.00  0.00    -0.517 A  
HETATM   23  C12 ON9 A2001      -4.616 -23.053  49.073  1.00  0.00    -0.564 A  
HETATM   24  C16 ON9 A2001      -2.901 -22.443  46.950  1.00  0.00    -0.616 A  
HETATM   25  C14 ON9 A2001      -5.118 -23.099  47.762  1.00  0.00    -0.621 A  
HETATM   26  C15 ON9 A2001      -4.240 -22.789  46.692  1.00  0.00    -0.649 A  
ENDBRANCH  16  18
BRANCH  15  27
HETATM   27  N   ON9 A2001      -4.672 -27.669  53.477  1.00  0.00    -0.326 NA 
HETATM   28  C21 ON9 A2001      -5.253 -29.857  53.562  1.00  0.00    -0.336 A  
HETATM   29  C19 ON9 A2001      -6.005 -27.740  53.116  1.00  0.00    -0.217 A  
HETATM   30  C22 ON9 A2001      -4.205 -28.960  53.735  1.00  0.00    -0.328 A  
HETATM   31  C20 ON9 A2001      -6.405 -29.079  53.171  1.00  0.00    -0.399 A  
BRANCH  28  32
HETATM   32  C23 ON9 A2001      -5.227 -31.341  53.761  1.00  0.00    -0.449 C  
BRANCH  32  33
HETATM   33  C24 ON9 A2001      -4.345 -31.825  54.926  1.00  0.00    -0.233 C  
HETATM   34  O1  ON9 A2001      -5.558 -32.029  57.088  1.00  0.00    -0.415 OA 
HETATM   35  O   ON9 A2001      -4.526 -30.161  56.698  1.00  0.00    -0.510 OA 
HETATM   36  C25 ON9 A2001      -4.796 -31.267  56.265  1.00  0.00    -0.422 C  
ENDBRANCH  32  33
ENDBRANCH  28  32
BRANCH  31  37
HETATM   37  C26 ON9 A2001      -7.782 -29.596  52.962  1.00  0.00    -0.275 C  
HETATM   38  O2  ON9 A2001      -8.719 -29.282  53.686  1.00  0.00    -0.300 OA 
BRANCH  37  39
HETATM   39  O3  ON9 A2001      -8.209 -30.462  51.949  1.00  0.00    -0.311 OA 
HETATM   40  C27 ON9 A2001      -7.385 -30.995  50.927  1.00  0.00    -0.471 C  
ENDBRANCH  37  39
ENDBRANCH  31  37
ENDBRANCH  15  27
ENDBRANCH   9  12
BRANCH   6  41
HETATM   41  O7  ON9 A2001       1.534 -23.898  50.103  1.00  0.00    -0.422 OA 
HETATM   42  C31 ON9 A2001       2.795 -24.553  50.198  1.00  0.00    -0.505 C  
ENDBRANCH   6  41
ENDBRANCH   2   4
TORSDOF 10
ENDMDL
