MODEL        1
REMARK THIS MODEL IS IDENTICAL TO THE INPUT LIGAND AND NOT FROM DOCKING
REMARK 921   NORMALIZED FREE ENERGY PREDICTED BY IDOCK:   -9.13 KCAL/MOL
REMARK 922        TOTAL FREE ENERGY PREDICTED BY IDOCK:  -12.77 KCAL/MOL
REMARK 923 INTER-LIGAND FREE ENERGY PREDICTED BY IDOCK:  -12.33 KCAL/MOL
REMARK 924 INTRA-LIGAND FREE ENERGY PREDICTED BY IDOCK:   -0.44 KCAL/MOL
REMARK 927      BINDING AFFINITY PREDICTED BY RF-SCORE:    0.00 PKD
ROOT
HETATM    1  O17 CAU A1202     -33.854  10.935   8.075  1.00  0.00    -0.862 OA 
HETATM    2  C16 CAU A1202     -32.583  10.367   8.166  1.00  0.00    -0.639 C  
HETATM    3  H17 CAU A1202     -33.829  11.839   8.367  1.00  0.00     0.000 HD 
ENDROOT
BRANCH   2   4
HETATM    4  C15 CAU A1202     -31.586  11.130   7.292  1.00  0.00    -0.480 C  
BRANCH   4   5
HETATM    5  O14 CAU A1202     -30.284  10.588   7.556  1.00  0.00    -0.405 OA 
BRANCH   5   6
HETATM    6  C13 CAU A1202     -29.205  11.061   6.737  1.00  0.00    -0.441 A  
HETATM    7  C12 CAU A1202     -29.354  12.284   6.099  1.00  0.00    -0.860 A  
HETATM    8  C9  CAU A1202     -28.014  10.322   6.577  1.00  0.00    -0.628 A  
HETATM    9  C11 CAU A1202     -28.324  12.778   5.296  1.00  0.00    -0.844 A  
HETATM   10  C10 CAU A1202     -27.151  12.048   5.137  1.00  0.00    -0.586 A  
HETATM   11  C4  CAU A1202     -27.610   9.090   7.096  1.00  0.00    -0.582 A  
HETATM   12  C5  CAU A1202     -28.245   8.173   7.951  1.00  0.00    -0.549 A  
HETATM   13  C6  CAU A1202     -27.597   7.000   8.318  1.00  0.00    -0.075 A  
HETATM   14  C1  CAU A1202     -26.318   6.732   7.834  1.00  0.00    -0.458 A  
HETATM   15  C2  CAU A1202     -25.690   7.638   6.989  1.00  0.00    -0.633 A  
HETATM   16  C3  CAU A1202     -26.344   8.827   6.619  1.00  0.00    -0.429 A  
HETATM   17  N7  CAU A1202     -25.962   9.886   5.807  1.00  0.00    -0.721 NA 
HETATM   18  C8  CAU A1202     -26.999  10.810   5.785  1.00  0.00    -0.482 A  
HETATM   19  H7  CAU A1202     -25.074   9.971   5.312  1.00  0.00     0.000 HD 
ENDBRANCH   5   6
ENDBRANCH   4   5
ENDBRANCH   2   4
BRANCH   2  20
HETATM   20  C18 CAU A1202     -32.623   8.921   7.699  1.00  0.00    -0.469 C  
BRANCH  20  21
HETATM   21  N19 CAU A1202     -33.996   8.437   7.715  1.00  0.00    -0.764 NA 
HETATM   22  H19 CAU A1202     -34.566   8.875   6.991  1.00  0.00     0.000 HD 
BRANCH  21  23
HETATM   23  C20 CAU A1202     -34.005   6.987   7.617  1.00  0.00    -0.326 C  
HETATM   24  C22 CAU A1202     -35.355   6.454   8.072  1.00  0.00    -0.512 C  
HETATM   25  C21 CAU A1202     -33.758   6.557   6.177  1.00  0.00    -0.587 C  
ENDBRANCH  21  23
ENDBRANCH  20  21
ENDBRANCH   2  20
TORSDOF 6
ENDMDL
