MODEL        1
REMARK THIS MODEL IS IDENTICAL TO THE INPUT LIGAND AND NOT FROM DOCKING
REMARK 921   NORMALIZED FREE ENERGY PREDICTED BY IDOCK:  -10.62 KCAL/MOL
REMARK 922        TOTAL FREE ENERGY PREDICTED BY IDOCK:  -13.47 KCAL/MOL
REMARK 923 INTER-LIGAND FREE ENERGY PREDICTED BY IDOCK:  -13.10 KCAL/MOL
REMARK 924 INTRA-LIGAND FREE ENERGY PREDICTED BY IDOCK:   -0.37 KCAL/MOL
REMARK 927      BINDING AFFINITY PREDICTED BY RF-SCORE:    0.00 PKD
ROOT
HETATM    1  CAA XQC A1401      -4.584 -11.320 -51.709  1.00  0.00    -0.562 C  
HETATM    2  CAB XQC A1401      -4.657 -12.841 -51.623  1.00  0.00    -0.397 C  
HETATM    3  CAD XQC A1401      -6.046 -13.360 -52.005  1.00  0.00    -0.550 C  
HETATM    4  CAC XQC A1401      -3.575 -13.473 -52.490  1.00  0.00    -0.649 C  
HETATM    5  NAL XQC A1401      -4.385 -13.209 -50.249  1.00  0.00    -0.789 NA 
HETATM    6  HAL XQC A1401      -5.073 -13.726 -49.701  1.00  0.00     0.000 HD 
ENDROOT
BRANCH   3   7
HETATM    7  CAE XQC A1401      -6.246 -13.514 -53.501  1.00  0.00    -0.494 A  
HETATM    8  CAJ XQC A1401      -6.497 -14.950 -55.423  1.00  0.00    -0.532 A  
HETATM    9  CAF XQC A1401      -6.404 -12.402 -54.324  1.00  0.00    -0.578 A  
HETATM   10  OAI XQC A1401      -6.832 -13.996 -57.582  1.00  0.00    -0.454 OA 
HETATM   11  CAG XQC A1401      -6.595 -12.561 -55.691  1.00  0.00    -0.503 A  
HETATM   12  CAH XQC A1401      -6.643 -13.837 -56.242  1.00  0.00    -0.370 A  
HETATM   13  HAI XQC A1401      -6.865 -14.868 -57.958  1.00  0.00     0.000 HD 
HETATM   14  CAK XQC A1401      -6.307 -14.789 -54.056  1.00  0.00    -0.591 A  
ENDBRANCH   3   7
BRANCH   5  15
HETATM   15  CAM XQC A1401      -3.112 -12.826 -49.670  1.00  0.00    -0.411 C  
BRANCH  15  16
HETATM   16  CAN XQC A1401      -2.820 -13.641 -48.416  1.00  0.00    -0.278 C  
HETATM   17  OAO XQC A1401      -3.872 -13.464 -47.460  1.00  0.00    -0.969 OA 
HETATM   18  HAO XQC A1401      -3.690 -13.972 -46.678  1.00  0.00     0.000 HD 
BRANCH  16  19
HETATM   19  CAP XQC A1401      -1.512 -13.205 -47.874  1.00  0.00    -0.570 A  
HETATM   20  CAS XQC A1401       0.965 -12.395 -46.904  1.00  0.00    -0.505 A  
HETATM   21  CAQ XQC A1401      -1.339 -12.990 -46.512  1.00  0.00    -0.790 A  
HETATM   22  CAR XQC A1401      -0.100 -12.581 -46.029  1.00  0.00    -0.813 A  
HETATM   23  CAU XQC A1401       0.792 -12.615 -48.259  1.00  0.00    -0.445 A  
HETATM   24  OAT XQC A1401       2.180 -11.996 -46.431  1.00  0.00    -0.775 OA 
HETATM   25  HAT XQC A1401       2.908 -11.869 -47.029  1.00  0.00     0.000 HD 
HETATM   26  OAV XQC A1401       1.833 -12.434 -49.118  1.00  0.00    -0.497 OA 
HETATM   27  CAW XQC A1401      -0.445 -13.021 -48.744  1.00  0.00    -0.581 A  
HETATM   28  HAV XQC A1401       1.714 -12.585 -50.048  1.00  0.00     0.000 HD 
ENDBRANCH  16  19
ENDBRANCH  15  16
ENDBRANCH   5  15
TORSDOF 4
ENDMDL
