REMARK  4 active torsions:
REMARK  status: ('A' for Active; 'I' for Inactive)
REMARK    1  A    between atoms: C6_3  and  C7_10
REMARK    2  A    between atoms: C8_11  and  C9_12
REMARK    3  A    between atoms: C10_13  and  C11_15
REMARK    4  A    between atoms: C12_16  and  C13_17
ROOT
HETATM    1  C1  RET A1338      39.003 -30.972  33.378  1.00  0.00    -0.010 C
HETATM    2  C17 RET A1338      39.153 -31.630  32.002  1.00  0.00     0.016 C
HETATM    3  C6  RET A1338      37.567 -30.877  33.765  1.00  0.00    -0.043 C
HETATM    4  C16 RET A1338      39.624 -31.937  34.389  1.00  0.00     0.016 C
HETATM    5  C5  RET A1338      36.915 -29.699  33.906  1.00  0.00    -0.069 C
HETATM    6  C2  RET A1338      39.687 -29.602  33.321  1.00  0.00     0.011 C
HETATM    7  C18 RET A1338      35.450 -29.515  34.129  1.00  0.00     0.039 C
HETATM    8  C4  RET A1338      37.604 -28.396  33.829  1.00  0.00     0.031 C
HETATM    9  C3  RET A1338      39.037 -28.598  34.262  1.00  0.00     0.005 C
ENDROOT
BRANCH   3  10
HETATM   10  C7  RET A1338      37.045 -32.229  33.955  1.00  0.00     0.004 C
HETATM   11  C8  RET A1338      35.958 -32.549  34.679  1.00  0.00     0.003 C
BRANCH  11  12
HETATM   12  C9  RET A1338      35.465 -33.891  34.775  1.00  0.00    -0.050 C
HETATM   13  C10 RET A1338      34.287 -34.136  35.379  1.00  0.00     0.003 C
HETATM   14  C19 RET A1338      36.247 -34.987  34.126  1.00  0.00     0.044 C
BRANCH  13  15
HETATM   15  C11 RET A1338      33.675 -35.420  35.317  1.00  0.00     0.001 C
HETATM   16  C12 RET A1338      32.558 -35.734  36.000  1.00  0.00     0.003 C
BRANCH  16  17
HETATM   17  C13 RET A1338      31.943 -37.019  35.814  1.00  0.00    -0.047 C
HETATM   18  C14 RET A1338      31.115 -37.573  36.727  1.00  0.00     0.046 C
HETATM   19  C20 RET A1338      32.303 -37.720  34.551  1.00  0.00     0.044 C
HETATM   20  C15 RET A1338      30.551 -38.894  36.569  1.00  0.00     0.251 C
HETATM   21  O1  RET A1338      29.910 -39.431  37.473  1.00  0.00    -0.296 OA
ENDBRANCH  16  17
ENDBRANCH  13  15
ENDBRANCH  11  12
ENDBRANCH   3  10
TORSDOF 4
