MODEL        1
REMARK THIS MODEL IS IDENTICAL TO THE INPUT LIGAND AND NOT FROM DOCKING
REMARK 921   NORMALIZED FREE ENERGY PREDICTED BY IDOCK:   -3.69 KCAL/MOL
REMARK 922        TOTAL FREE ENERGY PREDICTED BY IDOCK:   -4.94 KCAL/MOL
REMARK 923 INTER-LIGAND FREE ENERGY PREDICTED BY IDOCK:   -4.77 KCAL/MOL
REMARK 924 INTRA-LIGAND FREE ENERGY PREDICTED BY IDOCK:   -0.17 KCAL/MOL
REMARK 927      BINDING AFFINITY PREDICTED BY RF-SCORE:    0.00 PKD
ROOT
HETATM    1  C10 OLC A1201      -4.303  22.550 -48.961  1.00  0.00    -0.671 C  
HETATM    2  C9  OLC A1201      -3.904  22.031 -50.102  1.00  0.00    -0.623 C  
HETATM    3  C8  OLC A1201      -2.433  22.116 -50.501  1.00  0.00    -0.672 C  
ENDROOT
BRANCH   1   4
HETATM    4  C11 OLC A1201      -3.301  23.236 -48.033  1.00  0.00    -0.535 C  
BRANCH   4   5
HETATM    5  C12 OLC A1201      -4.050  23.762 -46.810  1.00  0.00    -0.520 C  
BRANCH   5   6
HETATM    6  C13 OLC A1201      -3.186  23.638 -45.555  1.00  0.00    -0.620 C  
BRANCH   6   7
HETATM    7  C14 OLC A1201      -2.313  24.883 -45.412  1.00  0.00    -0.421 C  
BRANCH   7   8
HETATM    8  C15 OLC A1201      -1.559  24.846 -44.083  1.00  0.00    -0.368 C  
HETATM    9  C16 OLC A1201      -0.789  26.153 -43.907  1.00  0.00    -0.337 C  
ENDBRANCH   7   8
ENDBRANCH   6   7
ENDBRANCH   5   6
ENDBRANCH   4   5
ENDBRANCH   1   4
TORSDOF 5
ENDMDL
