MODEL        1
REMARK THIS MODEL IS IDENTICAL TO THE INPUT LIGAND AND NOT FROM DOCKING
REMARK 921   NORMALIZED FREE ENERGY PREDICTED BY IDOCK:   -9.04 KCAL/MOL
REMARK 922        TOTAL FREE ENERGY PREDICTED BY IDOCK:  -11.15 KCAL/MOL
REMARK 923 INTER-LIGAND FREE ENERGY PREDICTED BY IDOCK:  -10.63 KCAL/MOL
REMARK 924 INTRA-LIGAND FREE ENERGY PREDICTED BY IDOCK:   -0.52 KCAL/MOL
REMARK 927      BINDING AFFINITY PREDICTED BY RF-SCORE:    0.00 PKD
ROOT
HETATM    1 CLA  DGW A1206     -12.118  31.211   2.501  1.00  0.00    -0.381 Cl 
HETATM    2  CAT DGW A1206     -10.435  31.404   2.702  1.00  0.00    -0.392 A  
HETATM    3  CAX DGW A1206      -9.550  31.163   1.649  1.00  0.00    -0.367 A  
HETATM    4  CAH DGW A1206      -9.974  31.808   3.947  1.00  0.00    -0.314 A  
HETATM    5  CAU DGW A1206      -8.168  31.347   1.872  1.00  0.00    -0.321 A  
HETATM    6 CLA  DGW A1206      -6.892  31.099   0.672  1.00  0.00    -0.735 Cl 
HETATM    7  CAI DGW A1206      -7.727  31.752   3.124  1.00  0.00    -0.607 A  
HETATM    8  CAE DGW A1206      -8.617  31.986   4.158  1.00  0.00    -0.447 A  
ENDROOT
BRANCH   3   9
HETATM    9  CBA DGW A1206     -10.074  30.760   0.400  1.00  0.00    -0.377 C  
HETATM   10  CAP DGW A1206     -10.311  28.959  -1.313  1.00  0.00    -0.230 C  
HETATM   11  CAN DGW A1206      -9.709  29.303   0.055  1.00  0.00    -0.329 C  
HETATM   12  NBB DGW A1206      -9.770  29.859  -2.361  1.00  0.00    -0.418 NA 
HETATM   13  CAO DGW A1206     -10.223  31.218  -2.044  1.00  0.00    -0.190 C  
HETATM   14  CAM DGW A1206      -9.652  31.664  -0.715  1.00  0.00    -0.413 C  
BRANCH  12  15
HETATM   15  CAR DGW A1206     -10.354  29.543  -3.676  1.00  0.00    -0.287 C  
BRANCH  15  16
HETATM   16  CAZ DGW A1206     -10.066  28.199  -4.360  1.00  0.00    -0.180 C  
HETATM   17  CAL DGW A1206     -10.747  28.353  -5.721  1.00  0.00    -0.229 C  
HETATM   18  CAK DGW A1206     -10.686  27.198  -6.706  1.00  0.00    -0.271 C  
HETATM   19  CAW DGW A1206      -9.430  26.784  -7.117  1.00  0.00    -0.339 A  
HETATM   20  CAV DGW A1206      -8.266  26.602  -6.376  1.00  0.00    -0.265 A  
HETATM   21  CAY DGW A1206      -7.948  26.793  -5.024  1.00  0.00    -0.237 C  
HETATM   22  CAJ DGW A1206      -7.115  26.179  -7.030  1.00  0.00    -0.431 A  
HETATM   23  OAB DGW A1206      -6.527  26.726  -4.810  1.00  0.00    -0.292 OA 
HETATM   24  CAQ DGW A1206      -8.552  28.063  -4.385  1.00  0.00    -0.228 C  
HETATM   25  CAF DGW A1206      -7.112  25.920  -8.393  1.00  0.00    -0.591 A  
HETATM   26  HAB DGW A1206      -6.312  26.855  -3.894  1.00  0.00     0.000 HD 
HETATM   27  CAG DGW A1206      -8.276  26.092  -9.131  1.00  0.00    -0.644 A  
HETATM   28  CAS DGW A1206      -9.437  26.524  -8.496  1.00  0.00    -0.466 A  
HETATM   29  CAA DGW A1206     -10.605  26.692  -9.255  1.00  0.00    -0.648 C  
ENDBRANCH  15  16
ENDBRANCH  12  15
ENDBRANCH   3   9
TORSDOF 3
ENDMDL
