REMARK 10 active torsions:
REMARK  status: ('A' for Active; 'I' for Inactive)
REMARK    1  A    between atoms: C02_2  and  C03_3
REMARK    2  A    between atoms: C03_3  and  C04_4
REMARK    3  A    between atoms: C07_6  and  C08_10
REMARK    4  A    between atoms: C09_11  and  C10_12
REMARK    5  A    between atoms: C15_19  and  C16_20
REMARK    6  A    between atoms: C16_20  and  C17_21
REMARK    7  A    between atoms: C17_21  and  C18_22
REMARK    8  A    between atoms: C18_22  and  C19_23
REMARK    9  A    between atoms: C19_23  and  C20_24
REMARK   10  A    between atoms: C20_24  and  C21_25
ROOT
HETATM    1  C01 J9P A2101     125.471 -11.713 153.693  1.00  0.00     0.004 C
HETATM    2  C02 J9P A2101     125.985 -11.098 152.400  1.00  0.00    -0.003 C
ENDROOT
BRANCH   2   3
HETATM    3  C03 J9P A2101     126.083  -9.576 152.453  1.00  0.00     0.003 C
BRANCH   3   4
HETATM    4  C04 J9P A2101     126.987  -9.075 151.320  1.00  0.00     0.035 C
HETATM    5  C05 J9P A2101     126.850  -7.623 150.827  1.00  0.00     0.067 C
HETATM    6  C07 J9P A2101     127.134  -6.541 151.880  1.00  0.00     0.061 C
HETATM    7  O26 J9P A2101     127.735  -7.454 149.753  1.00  0.00    -0.389 OA
HETATM    8  C06 J9P A2101     125.442  -7.371 150.307  1.00  0.00     0.041 C
HETATM    9  H26 J9P A2101     127.650  -6.558 149.449  1.00  0.00     0.210 HD
BRANCH   6  10
HETATM   10  C08 J9P A2101     128.465  -6.717 152.613  1.00  0.00    -0.028 C
HETATM   11  C09 J9P A2101     129.204  -5.656 152.853  1.00  0.00    -0.024 C
BRANCH  11  12
HETATM   12  C10 J9P A2101     130.501  -5.766 153.576  1.00  0.00     0.050 C
HETATM   13  C11 J9P A2101     131.659  -4.895 152.739  1.00  0.00     0.129 C
HETATM   14  O25 J9P A2101     132.233  -5.696 151.788  1.00  0.00    -0.391 OA
HETATM   15  C12 J9P A2101     132.607  -4.536 153.685  1.00  0.00     0.106 C
HETATM   16  H25 J9P A2101     132.890  -5.201 151.313  1.00  0.00     0.210 HD
HETATM   17  C13 J9P A2101     131.851  -4.551 155.066  1.00  0.00     0.140 C
HETATM   18  O14 J9P A2101     132.307  -4.199 156.109  1.00  0.00    -0.297 OA
HETATM   19  C15 J9P A2101     130.422  -5.107 154.822  1.00  0.00     0.065 C
BRANCH  19  20
HETATM   20  C16 J9P A2101     129.905  -6.024 155.987  1.00  0.00     0.012 C
BRANCH  20  21
HETATM   21  C17 J9P A2101     130.792  -7.234 156.286  1.00  0.00     0.001 C
BRANCH  21  22
HETATM   22  C18 J9P A2101     130.145  -8.236 157.242  1.00  0.00     0.000 C
BRANCH  22  23
HETATM   23  C19 J9P A2101     130.348  -7.882 158.715  1.00  0.00     0.001 C
BRANCH  23  24
HETATM   24  C20 J9P A2101     131.730  -8.225 159.263  1.00  0.00     0.011 C
BRANCH  24  25
HETATM   25  C21 J9P A2101     132.063  -7.351 160.469  1.00  0.00     0.108 C
HETATM   26  C22 J9P A2101     133.553  -7.294 160.814  1.00  0.00     0.176 C
HETATM   27  O24 J9P A2101     134.416  -7.066 159.922  1.00  0.00    -0.648 OA
HETATM   28  O23 J9P A2101     133.919  -7.460 162.009  1.00  0.00    -0.648 OA
ENDBRANCH  24  25
ENDBRANCH  23  24
ENDBRANCH  22  23
ENDBRANCH  21  22
ENDBRANCH  20  21
ENDBRANCH  19  20
ENDBRANCH  11  12
ENDBRANCH   6  10
ENDBRANCH   3   4
ENDBRANCH   2   3
TORSDOF 10
