REMARK  2 active torsions:
REMARK  status: ('A' for Active; 'I' for Inactive)
REMARK    1  A    between atoms: C6_3  and  C7_10
REMARK    2  A    between atoms: C5_5  and  C13_19
ROOT
HETATM    1  N2  T4E A1201      20.359 171.639  17.388  1.00  0.00    -0.117 NA
HETATM    2  N1  T4E A1201      21.248 172.495  17.092  1.00  0.00    -0.144 NA
HETATM    3  C6  T4E A1201      21.223 173.834  17.473  1.00  0.00     0.119 A
HETATM    4  H32 T4E A1201      18.716 170.277  18.936  1.00  0.00     0.127 HD
HETATM    5  C5  T4E A1201      20.068 174.234  18.259  1.00  0.00     0.102 A
HETATM    6  H31 T4E A1201      17.443 171.327  19.025  1.00  0.00     0.127 HD
HETATM    7  N3  T4E A1201      18.259 171.063  18.473  1.00  0.00    -0.269 NA
HETATM    8  N4  T4E A1201      19.095 173.318  18.590  1.00  0.00    -0.214 NA
HETATM    9  C3  T4E A1201      19.231 172.004  18.151  1.00  0.00     0.220 A
ENDROOT
BRANCH   3  10
HETATM   10  C7  T4E A1201      22.335 174.756  17.033  1.00  0.00     0.006 A
HETATM   11  C11 T4E A1201      24.758 175.287  16.737  1.00  0.00     0.035 A
HETATM   12  H1  T4E A1201      25.263 178.218  15.352  1.00  0.00     0.217 HD
HETATM   13  C10 T4E A1201      24.467 176.535  16.154  1.00  0.00     0.091 A
HETATM   14 CL1  T4E A1201      22.648 178.376  15.313  1.00  0.00    -0.081 Cl
HETATM   15  O1  T4E A1201      25.459 177.376  15.745  1.00  0.00    -0.358 OA
HETATM   16  C12 T4E A1201      23.705 174.411  17.169  1.00  0.00     0.013 A
HETATM   17  C9  T4E A1201      23.131 176.847  16.028  1.00  0.00     0.071 A
HETATM   18  C8  T4E A1201      22.091 176.010  16.430  1.00  0.00     0.032 A
ENDBRANCH   3  10
BRANCH   5  19
HETATM   19  C13 T4E A1201      19.827 175.645  18.774  1.00  0.00     0.003 A
HETATM   20  C16 T4E A1201      19.340 178.290  19.752  1.00  0.00     0.000 A
HETATM   21  C15 T4E A1201      18.298 177.526  19.213  1.00  0.00     0.001 A
HETATM   22  C17 T4E A1201      20.643 177.736  19.805  1.00  0.00     0.001 A
HETATM   23  C14 T4E A1201      18.548 176.214  18.736  1.00  0.00     0.010 A
HETATM   24  C18 T4E A1201      20.865 176.415  19.328  1.00  0.00     0.010 A
ENDBRANCH   5  19
TORSDOF 2
