MODEL        1
REMARK THIS MODEL IS IDENTICAL TO THE INPUT LIGAND AND NOT FROM DOCKING
REMARK 921   NORMALIZED FREE ENERGY PREDICTED BY IDOCK:  -14.24 KCAL/MOL
REMARK 922        TOTAL FREE ENERGY PREDICTED BY IDOCK:  -18.59 KCAL/MOL
REMARK 923 INTER-LIGAND FREE ENERGY PREDICTED BY IDOCK:  -17.57 KCAL/MOL
REMARK 924 INTRA-LIGAND FREE ENERGY PREDICTED BY IDOCK:   -1.02 KCAL/MOL
REMARK 927      BINDING AFFINITY PREDICTED BY RF-SCORE:    0.00 PKD
ROOT
HETATM    1  C1  ERM A2001      -5.279 -20.621  23.228  1.00  0.00    -0.467 A  
HETATM    2  C2  ERM A2001      -6.252 -20.018  22.492  1.00  0.00    -0.604 A  
HETATM    3  C14 ERM A2001      -7.402 -20.099  23.301  1.00  0.00    -0.643 A  
HETATM    4  C13 ERM A2001      -7.124 -20.726  24.524  1.00  0.00    -0.513 A  
HETATM    5  C12 ERM A2001      -8.079 -20.896  25.478  1.00  0.00    -0.690 A  
HETATM    6  N1  ERM A2001      -5.767 -21.035  24.418  1.00  0.00    -0.639 NA 
HETATM    7  C11 ERM A2001      -9.403 -20.411  25.209  1.00  0.00    -0.478 A  
HETATM    8  H1  ERM A2001      -5.220 -21.507  25.138  1.00  0.00     0.000 HD 
HETATM    9  C10 ERM A2001      -9.680 -19.785  23.970  1.00  0.00    -0.480 A  
HETATM   10  C9  ERM A2001      -8.695 -19.603  22.985  1.00  0.00    -0.580 A  
HETATM   11  C8  ERM A2001      -8.843 -18.992  21.600  1.00  0.00    -0.296 C  
HETATM   12  C7  ERM A2001      -9.984 -19.123  20.930  1.00  0.00    -0.415 C  
HETATM   13  C6  ERM A2001     -10.197 -18.572  19.543  1.00  0.00    -0.561 C  
HETATM   14  C3  ERM A2001      -6.319 -19.424  21.114  1.00  0.00    -0.353 C  
HETATM   15  C5  ERM A2001      -9.099 -17.646  19.053  1.00  0.00    -0.462 C  
HETATM   16  N2  ERM A2001      -7.721 -18.066  19.493  1.00  0.00    -0.460 NA 
HETATM   17  C15 ERM A2001      -6.868 -16.917  19.089  1.00  0.00    -0.442 C  
HETATM   18  C4  ERM A2001      -7.553 -18.459  20.955  1.00  0.00    -0.383 C  
ENDROOT
BRANCH  13  19
HETATM   19  C16 ERM A2001     -11.589 -17.893  19.367  1.00  0.00    -0.359 C  
HETATM   20  N3  ERM A2001     -12.463 -18.493  18.524  1.00  0.00    -0.307 N  
HETATM   21  O1  ERM A2001     -11.837 -16.865  19.965  1.00  0.00    -0.205 OA 
HETATM   22  H3  ERM A2001     -12.169 -19.372  18.099  1.00  0.00     0.000 HD 
BRANCH  20  23
HETATM   23  C17 ERM A2001     -13.795 -17.992  18.167  1.00  0.00    -0.300 C  
HETATM   24  C26 ERM A2001     -14.268 -18.981  17.116  1.00  0.00    -0.603 C  
HETATM   25  C18 ERM A2001     -14.741 -17.931  19.335  1.00  0.00    -0.303 C  
HETATM   26  O3  ERM A2001     -15.147 -18.879  19.977  1.00  0.00    -0.521 OA 
HETATM   27  N4  ERM A2001     -15.047 -16.631  19.463  1.00  0.00    -0.282 N  
HETATM   28  C19 ERM A2001     -16.000 -16.150  20.437  1.00  0.00    -0.268 C  
HETATM   29  C20 ERM A2001     -16.859 -15.036  19.817  1.00  0.00    -0.255 C  
HETATM   30  C24 ERM A2001     -15.457 -14.858  17.768  1.00  0.00    -0.263 C  
HETATM   31  H5  ERM A2001     -12.856 -15.421  19.643  1.00  0.00     0.000 HD 
HETATM   32  O4  ERM A2001     -17.845 -14.600  20.436  1.00  0.00    -0.182 OA 
HETATM   33  N5  ERM A2001     -16.541 -14.490  18.652  1.00  0.00    -0.249 N  
HETATM   34  C21 ERM A2001     -17.252 -13.431  17.946  1.00  0.00    -0.298 C  
HETATM   35  O5  ERM A2001     -13.496 -14.900  19.173  1.00  0.00    -0.309 OA 
HETATM   36  C22 ERM A2001     -16.233 -12.666  17.129  1.00  0.00    -0.641 C  
HETATM   37  O2  ERM A2001     -13.762 -16.643  17.689  1.00  0.00    -0.316 OA 
HETATM   38  C25 ERM A2001     -14.427 -15.697  18.524  1.00  0.00    -0.279 C  
HETATM   39  C23 ERM A2001     -14.980 -13.587  17.041  1.00  0.00    -0.575 C  
BRANCH  28  40
HETATM   40  C27 ERM A2001     -15.364 -15.628  21.701  1.00  0.00    -0.485 C  
BRANCH  40  41
HETATM   41  C28 ERM A2001     -14.753 -16.660  22.630  1.00  0.00    -0.457 A  
HETATM   42  C31 ERM A2001     -13.557 -18.487  24.409  1.00  0.00    -0.329 A  
HETATM   43  C29 ERM A2001     -13.409 -16.496  23.034  1.00  0.00    -0.534 A  
HETATM   44  C32 ERM A2001     -14.910 -18.620  24.044  1.00  0.00    -0.087 A  
HETATM   45  C33 ERM A2001     -15.516 -17.727  23.143  1.00  0.00    -0.349 A  
HETATM   46  C30 ERM A2001     -12.800 -17.423  23.900  1.00  0.00    -0.345 A  
ENDBRANCH  40  41
ENDBRANCH  28  40
ENDBRANCH  20  23
ENDBRANCH  13  19
TORSDOF 4
ENDMDL
