REMARK  5 active torsions:
REMARK  status: ('A' for Active; 'I' for Inactive)
REMARK    1  A    between atoms: C3_3  and  C1A_14
REMARK    2  A    between atoms: N2A_16  and  C2A_18
REMARK    3  A    between atoms: C2A_18  and  C4D_22
REMARK    4  A    between atoms: C4D_22  and  N11_23
REMARK    5  A    between atoms: C41_26  and  C1C_31
ROOT
HETATM    1  C1  JDC A1300       3.212 -20.410  59.668  1.00  0.00     0.117 C
HETATM    2  N2  JDC A1300       2.925 -21.788  59.558  1.00  0.00    -0.302 NA
HETATM    3  C3  JDC A1300       2.200 -22.081  58.366  1.00  0.00     0.142 C
HETATM    4  H2  JDC A1300       3.773 -22.351  59.626  1.00  0.00     0.123 HD
HETATM    5  C4  JDC A1300       0.834 -21.417  58.395  1.00  0.00     0.063 C
HETATM    6  C7  JDC A1300       1.111 -17.258  59.670  1.00  0.00     0.073 A
HETATM    7  H7  JDC A1300       2.027 -15.671  60.492  1.00  0.00     0.217 HD
HETATM    8  C8A JDC A1300       2.050 -19.540  59.431  1.00  0.00    -0.028 A
HETATM    9  C4A JDC A1300       0.941 -19.983  58.845  1.00  0.00    -0.041 A
HETATM   10  C6  JDC A1300      -0.050 -17.705  59.061  1.00  0.00     0.033 A
HETATM   11  C5  JDC A1300      -0.162 -19.056  58.639  1.00  0.00     0.006 A
HETATM   12  O7  JDC A1300       1.231 -15.978  60.074  1.00  0.00    -0.360 OA
HETATM   13  C8  JDC A1300       2.166 -18.147  59.863  1.00  0.00     0.037 A
ENDROOT
BRANCH   3  14
HETATM   14  C1A JDC A1300       2.111 -23.598  58.190  1.00  0.00     0.218 C
HETATM   15  O1  JDC A1300       1.727 -24.318  59.120  1.00  0.00    -0.278 OA
HETATM   16  N2A JDC A1300       2.503 -24.178  56.921  1.00  0.00    -0.252 N
HETATM   17  H2A JDC A1300       2.825 -23.570  56.168  1.00  0.00     0.131 HD
BRANCH  16  18
HETATM   18  C2A JDC A1300       2.445 -25.585  56.711  1.00  0.00     0.078 C
HETATM   19  C3B JDC A1300       1.576 -27.107  54.864  1.00  0.00     0.009 C
HETATM   20  C3D JDC A1300       0.193 -25.053  55.545  1.00  0.00     0.009 C
HETATM   21  C3A JDC A1300       1.614 -25.743  55.429  1.00  0.00     0.001 C
BRANCH  18  22
HETATM   22  C4D JDC A1300       3.811 -26.223  56.565  1.00  0.00     0.103 C
BRANCH  22  23
HETATM   23  N11 JDC A1300       4.678 -26.293  57.835  1.00  0.00    -0.301 NA
HETATM   24  C61 JDC A1300       6.115 -26.461  57.818  1.00  0.00     0.085 C
HETATM   25  C51 JDC A1300       6.752 -26.272  59.152  1.00  0.00     0.027 C
HETATM   26  C41 JDC A1300       6.129 -27.032  60.202  1.00  0.00    -0.002 C
HETATM   27  C4E JDC A1300       6.423 -28.478  59.844  1.00  0.00     0.016 C
HETATM   28  C31 JDC A1300       4.679 -26.846  60.229  1.00  0.00     0.010 C
HETATM   29  C21 JDC A1300       4.043 -27.036  58.903  1.00  0.00     0.088 C
HETATM   30  C34 JDC A1300       4.312 -25.401  60.739  1.00  0.00     0.009 C
BRANCH  26  31
HETATM   31  C1C JDC A1300       6.721 -26.803  61.593  1.00  0.00    -0.039 A
HETATM   32  C2C JDC A1300       6.111 -27.382  62.709  1.00  0.00     0.036 A
HETATM   33  C3C JDC A1300       6.658 -27.175  63.992  1.00  0.00     0.073 A
HETATM   34  O3C JDC A1300       6.021 -27.774  65.151  1.00  0.00    -0.360 OA
HETATM   35  C4C JDC A1300       7.839 -26.372  64.148  1.00  0.00     0.032 A
HETATM   36  H3C JDC A1300       6.390 -27.635  66.015  1.00  0.00     0.217 HD
HETATM   37  C5C JDC A1300       8.441 -25.801  63.038  1.00  0.00     0.003 A
HETATM   38  C6C JDC A1300       7.899 -26.005  61.754  1.00  0.00     0.004 A
ENDBRANCH  26  31
ENDBRANCH  22  23
ENDBRANCH  18  22
ENDBRANCH  16  18
ENDBRANCH   3  14
TORSDOF 5
