MODEL        1
REMARK THIS MODEL IS IDENTICAL TO THE INPUT LIGAND AND NOT FROM DOCKING
REMARK 921   NORMALIZED FREE ENERGY PREDICTED BY IDOCK:  -11.47 KCAL/MOL
REMARK 922        TOTAL FREE ENERGY PREDICTED BY IDOCK:  -15.04 KCAL/MOL
REMARK 923 INTER-LIGAND FREE ENERGY PREDICTED BY IDOCK:  -14.15 KCAL/MOL
REMARK 924 INTRA-LIGAND FREE ENERGY PREDICTED BY IDOCK:   -0.89 KCAL/MOL
REMARK 927      BINDING AFFINITY PREDICTED BY RF-SCORE:    0.00 PKD
ROOT
HETATM    1  N1  CVV A2001      59.560 -25.364  -7.300  1.00  0.00    -0.260 N  
HETATM    2  O2  CVV A2001      60.722 -26.279  -9.054  1.00  0.00    -0.267 OA 
HETATM    3  C9  CVV A2001      59.792 -26.317  -8.243  1.00  0.00    -0.270 C  
HETATM    4  H1  CVV A2001      58.774 -25.518  -6.669  1.00  0.00     0.000 HD 
ENDROOT
BRANCH   1   5
HETATM    5  C8  CVV A2001      60.351 -24.114  -7.105  1.00  0.00    -0.243 C  
HETATM    6  C16 CVV A2001      59.590 -23.209  -6.054  1.00  0.00    -0.300 C  
HETATM    7  C22 CVV A2001      58.880 -23.445  -3.667  1.00  0.00    -0.636 C  
HETATM    8  O3  CVV A2001      59.707 -21.766  -6.316  1.00  0.00    -0.086 OA 
HETATM    9  C23 CVV A2001      59.338 -23.554  -2.207  1.00  0.00    -0.403 C  
HETATM   10  N2  CVV A2001      60.331 -24.643  -2.042  1.00  0.00    -0.639 NA 
HETATM   11  C19 CVV A2001      60.670 -21.283  -5.464  1.00  0.00    -0.390 A  
HETATM   12  C20 CVV A2001      61.373 -20.139  -5.496  1.00  0.00    -0.368 A  
HETATM   13  C7  CVV A2001      61.788 -24.441  -6.659  1.00  0.00    -0.362 C  
HETATM   14  C3  CVV A2001      62.228 -23.060  -2.569  1.00  0.00    -0.543 C  
HETATM   15  C21 CVV A2001      62.366 -19.850  -4.549  1.00  0.00    -0.420 A  
HETATM   16  O4  CVV A2001      61.050 -19.263  -6.485  1.00  0.00    -0.342 OA 
HETATM   17  C1  CVV A2001      62.661 -20.784  -3.550  1.00  0.00    -0.448 A  
HETATM   18  C6  CVV A2001      62.112 -24.640  -5.370  1.00  0.00    -0.372 C  
HETATM   19  H4  CVV A2001      61.547 -18.454  -6.508  1.00  0.00     0.000 HD 
HETATM   20  C4  CVV A2001      61.519 -24.436  -2.920  1.00  0.00    -0.369 C  
HETATM   21  C2  CVV A2001      61.926 -21.970  -3.549  1.00  0.00    -0.437 A  
HETATM   22  C18 CVV A2001      60.908 -22.120  -4.441  1.00  0.00    -0.381 A  
HETATM   23  C17 CVV A2001      60.086 -23.362  -4.608  1.00  0.00    -0.366 C  
HETATM   24  C5  CVV A2001      60.985 -24.579  -4.351  1.00  0.00    -0.323 C  
BRANCH  10  25
HETATM   25  C24 CVV A2001      60.744 -24.744  -0.600  1.00  0.00    -0.437 C  
BRANCH  25  26
HETATM   26  C25 CVV A2001      61.498 -26.034  -0.273  1.00  0.00    -0.741 C  
HETATM   27  C27 CVV A2001      62.116 -26.038   1.103  1.00  0.00    -0.992 C  
HETATM   28  C26 CVV A2001      63.011 -25.899  -0.109  1.00  0.00    -0.884 C  
ENDBRANCH  25  26
ENDBRANCH  10  25
ENDBRANCH   1   5
BRANCH   3  29
HETATM   29  C10 CVV A2001      58.992 -27.466  -8.153  1.00  0.00    -0.369 A  
HETATM   30  I1  CVV A2001      57.569 -29.947  -4.835  1.00  0.00    -0.197 I  
HETATM   31  C12 CVV A2001      57.973 -29.209  -6.775  1.00  0.00    -0.521 A  
HETATM   32  C13 CVV A2001      57.529 -29.877  -7.926  1.00  0.00    -0.600 A  
HETATM   33  C14 CVV A2001      57.826 -29.348  -9.186  1.00  0.00    -0.583 A  
HETATM   34  C15 CVV A2001      58.570 -28.163  -9.294  1.00  0.00    -0.230 A  
HETATM   35  C11 CVV A2001      58.704 -28.020  -6.901  1.00  0.00    -0.367 A  
ENDBRANCH   3  29
TORSDOF 4
ENDMDL
