MODEL        1
REMARK THIS MODEL IS IDENTICAL TO THE INPUT LIGAND AND NOT FROM DOCKING
REMARK 921   NORMALIZED FREE ENERGY PREDICTED BY IDOCK:   -7.85 KCAL/MOL
REMARK 922        TOTAL FREE ENERGY PREDICTED BY IDOCK:  -11.35 KCAL/MOL
REMARK 923 INTER-LIGAND FREE ENERGY PREDICTED BY IDOCK:  -10.14 KCAL/MOL
REMARK 924 INTRA-LIGAND FREE ENERGY PREDICTED BY IDOCK:   -1.21 KCAL/MOL
REMARK 927      BINDING AFFINITY PREDICTED BY RF-SCORE:    0.00 PKD
ROOT
HETATM    1  C10 GBK A1501       4.628  18.565 -57.102  1.00  0.00    -0.347 C  
HETATM    2  C09 GBK A1501       3.782  19.332 -56.097  1.00  0.00    -0.334 C  
HETATM    3  C13 GBK A1501       2.999  20.442 -56.777  1.00  0.00    -0.181 C  
HETATM    4  H15 GBK A1501       1.497  20.589 -58.173  1.00  0.00     0.000 HD 
HETATM    5  C12 GBK A1501       2.518  18.828 -58.536  1.00  0.00     0.008 C  
HETATM    6  C11 GBK A1501       4.062  18.686 -58.518  1.00  0.00    -0.356 C  
HETATM    7  N15 GBK A1501       1.981  19.864 -57.643  1.00  0.00    -0.713 NA 
ENDROOT
BRANCH   2   8
HETATM    8  N14 GBK A1501       2.833  18.409 -55.487  1.00  0.00    -0.477 NA 
HETATM    9  H14 GBK A1501       2.118  18.893 -54.944  1.00  0.00     0.000 HD 
BRANCH   8  10
HETATM   10  C08 GBK A1501       3.550  17.436 -54.700  1.00  0.00    -0.316 C  
BRANCH  10  11
HETATM   11  C07 GBK A1501       3.570  17.997 -53.289  1.00  0.00    -0.551 A  
HETATM   12  C06 GBK A1501       2.516  18.788 -52.864  1.00  0.00    -0.420 A  
HETATM   13  C04 GBK A1501       3.570  19.041 -50.735  1.00  0.00    -0.693 A  
HETATM   14  C03 GBK A1501       4.626  18.251 -51.162  1.00  0.00    -0.679 A  
HETATM   15  C05 GBK A1501       2.509  19.311 -51.584  1.00  0.00    -0.567 A  
HETATM   16  C02 GBK A1501       4.629  17.730 -52.444  1.00  0.00    -0.367 A  
BRANCH  16  17
HETATM   17  O16 GBK A1501       5.686  16.932 -52.892  1.00  0.00    -0.404 OA 
HETATM   18  C01 GBK A1501       6.742  16.805 -51.986  1.00  0.00    -0.400 C  
ENDBRANCH  16  17
ENDBRANCH  10  11
ENDBRANCH   8  10
ENDBRANCH   2   8
BRANCH   3  19
HETATM   19  C17 GBK A1501       2.350  21.295 -55.683  1.00  0.00    -0.555 A  
HETATM   20  C18 GBK A1501       3.052  22.360 -55.140  1.00  0.00    -0.578 A  
HETATM   21  C22 GBK A1501       1.071  21.002 -55.229  1.00  0.00    -0.547 A  
HETATM   22  C19 GBK A1501       2.475  23.135 -54.148  1.00  0.00    -0.602 A  
HETATM   23  C21 GBK A1501       0.494  21.779 -54.237  1.00  0.00    -0.545 A  
HETATM   24  C20 GBK A1501       1.196  22.845 -53.697  1.00  0.00    -0.517 A  
ENDBRANCH   3  19
TORSDOF 5
ENDMDL
