REMARK  7 active torsions:
REMARK  status: ('A' for Active; 'I' for Inactive)
REMARK    1  A    between atoms: C13_6  and  C12_9
REMARK    2  A    between atoms: C12_9  and  C11_10
REMARK    3  A    between atoms: C11_10  and  C9_11
REMARK    4  A    between atoms: C9_11  and  N1_13
REMARK    5  A    between atoms: N1_13  and  C8_15
REMARK    6  A    between atoms: C8_15  and  C1_16
REMARK    7  A    between atoms: C1_16  and  C2_17
ROOT
HETATM    1  O3  Y00 A 601     -33.522 -16.734  26.443  1.00  0.00    -0.360 OA
HETATM    2  C16 Y00 A 601     -32.228 -16.485  26.129  1.00  0.00     0.073 A
HETATM    3  H3  Y00 A 601     -34.214 -16.474  25.847  1.00  0.00     0.217 HD
HETATM    4  C15 Y00 A 601     -31.212 -16.867  27.004  1.00  0.00     0.033 A
HETATM    5  C14 Y00 A 601     -29.881 -16.607  26.680  1.00  0.00     0.006 A
HETATM    6  C13 Y00 A 601     -29.574 -15.971  25.470  1.00  0.00    -0.047 A
HETATM    7  C18 Y00 A 601     -30.605 -15.598  24.599  1.00  0.00     0.006 A
HETATM    8  C17 Y00 A 601     -31.933 -15.858  24.925  1.00  0.00     0.033 A
ENDROOT
BRANCH   6   9
HETATM    9  C12 Y00 A 601     -28.144 -15.656  25.067  1.00  0.00     0.036 C
BRANCH   9  10
HETATM   10  C11 Y00 A 601     -27.113 -16.400  25.907  1.00  0.00     0.023 C
BRANCH  10  11
HETATM   11  C9  Y00 A 601     -25.703 -16.275  25.338  1.00  0.00     0.051 C
HETATM   12  C10 Y00 A 601     -25.527 -17.034  24.023  1.00  0.00     0.024 C
BRANCH  11  13
HETATM   13  N1  Y00 A 601     -25.320 -14.885  25.195  1.00  0.00    -0.313 NA
HETATM   14  H1  Y00 A 601     -26.004 -14.174  24.937  1.00  0.00     0.122 HD
BRANCH  13  15
HETATM   15  C8  Y00 A 601     -23.927 -14.537  25.432  1.00  0.00     0.086 C
BRANCH  15  16
HETATM   16  C1  Y00 A 601     -23.748 -13.064  25.758  1.00  0.00     0.050 C
BRANCH  16  17
HETATM   17  C2  Y00 A 601     -22.302 -12.695  25.988  1.00  0.00    -0.044 A
HETATM   18  C7  Y00 A 601     -21.636 -13.146  27.129  1.00  0.00     0.038 A
HETATM   19  C6  Y00 A 601     -20.313 -12.783  27.314  1.00  0.00     0.102 A
HETATM   20  C5  Y00 A 601     -19.638 -11.929  26.312  1.00  0.00     0.102 A
HETATM   21  O1  Y00 A 601     -19.627 -13.202  28.407  1.00  0.00    -0.357 OA
HETATM   22  H1  Y00 A 601     -18.719 -12.953  28.534  1.00  0.00     0.217 HD
HETATM   23  O2  Y00 A 601     -18.336 -11.584  26.501  1.00  0.00    -0.357 OA
HETATM   24  C4  Y00 A 601     -20.332 -11.494  25.193  1.00  0.00     0.035 A
HETATM   25  H2  Y00 A 601     -17.903 -11.036  25.857  1.00  0.00     0.217 HD
HETATM   26  C3  Y00 A 601     -21.656 -11.885  25.039  1.00  0.00     0.006 A
ENDBRANCH  16  17
ENDBRANCH  15  16
ENDBRANCH  13  15
ENDBRANCH  11  13
ENDBRANCH  10  11
ENDBRANCH   9  10
ENDBRANCH   6   9
TORSDOF 7
