REMARK  8 active torsions:
REMARK  status: ('A' for Active; 'I' for Inactive)
REMARK    1  A    between atoms: N_3  and  C2_13
REMARK    2  A    between atoms: C2_13  and  C1_14
REMARK    3  A    between atoms: N1_12  and  C4_16
REMARK    4  A    between atoms: C15_4  and  C16_32
REMARK    5  A    between atoms: C4_16  and  C5_17
REMARK    6  A    between atoms: C5_17  and  C6_18
REMARK    7  A    between atoms: C6_18  and  N2_19
REMARK    8  A    between atoms: C7_22  and  C8_23
ROOT
HETATM    1  O4  DU1 A1201      52.632  56.381 141.281  1.00  0.00    -0.259 OA
HETATM    2  C3  DU1 A1201      53.092  57.489 141.071  1.00  0.00     0.290 C
HETATM    3  N   DU1 A1201      52.492  58.368 140.164  1.00  0.00    -0.165 N
HETATM    4  C15 DU1 A1201      55.910  60.971 141.444  1.00  0.00     0.093 A
HETATM    5  C23 DU1 A1201      52.955  59.668 139.845  1.00  0.00     0.256 C
HETATM    6  O3  DU1 A1201      52.364  60.373 139.033  1.00  0.00    -0.272 OA
HETATM    7  C22 DU1 A1201      54.124  60.036 140.552  1.00  0.00     0.118 A
HETATM    8  H4  DU1 A1201      54.739  62.007 140.007  1.00  0.00     0.135 HD
HETATM    9  N4  DU1 A1201      54.897  61.167 140.563  1.00  0.00    -0.240 NA
HETATM   10  C14 DU1 A1201      54.739  59.205 141.449  1.00  0.00     0.141 A
HETATM   11  N3  DU1 A1201      55.847  59.780 142.000  1.00  0.00    -0.226 NA
HETATM   12  N1  DU1 A1201      54.241  57.935 141.723  1.00  0.00    -0.183 N
ENDROOT
BRANCH   3  13
HETATM   13  C2  DU1 A1201      51.292  57.890 139.453  1.00  0.00     0.102 C
BRANCH  13  14
HETATM   14  C1  DU1 A1201      50.003  58.368 140.053  1.00  0.00     0.013 C
HETATM   15  C   DU1 A1201      48.813  57.763 139.327  1.00  0.00     0.005 C
ENDBRANCH  13  14
ENDBRANCH   3  13
BRANCH  12  16
HETATM   16  C4  DU1 A1201      54.903  57.018 142.666  1.00  0.00     0.102 C
BRANCH  16  17
HETATM   17  C5  DU1 A1201      54.273  57.020 144.043  1.00  0.00     0.032 C
BRANCH  17  18
HETATM   18  C6  DU1 A1201      54.879  55.986 144.968  1.00  0.00     0.090 C
BRANCH  18  19
HETATM   19  N2  DU1 A1201      56.038  56.504 145.684  1.00  0.00    -0.254 N
HETATM   20  H2  DU1 A1201      56.632  57.195 145.225  1.00  0.00     0.131 HD
HETATM   21  O2  DU1 A1201      55.669  55.283 147.534  1.00  0.00    -0.274 OA
HETATM   22  C7  DU1 A1201      56.350  56.105 146.923  1.00  0.00     0.232 C
BRANCH  22  23
HETATM   23  C8  DU1 A1201      57.554  56.719 147.568  1.00  0.00     0.033 A
HETATM   24  C13 DU1 A1201      57.962  58.025 147.299  1.00  0.00     0.011 A
HETATM   25  C12 DU1 A1201      59.067  58.571 147.928  1.00  0.00    -0.009 A
HETATM   26  C11 DU1 A1201      59.769  57.813 148.852  1.00  0.00     0.024 A
HETATM   27  C10 DU1 A1201      59.375  56.519 149.147  1.00  0.00    -0.009 A
HETATM   28  S   DU1 A1201      61.183  58.480 149.680  1.00  0.00     1.689 S
HETATM   29  O   DU1 A1201      62.126  57.392 149.841  1.00  0.00    -1.345 OA
HETATM   30  C9  DU1 A1201      58.270  55.981 148.511  1.00  0.00     0.011 A
HETATM   31  O1  DU1 A1201      61.626  59.622 148.910  1.00  0.00    -1.345 OA
ENDBRANCH  22  23
ENDBRANCH  18  19
ENDBRANCH  17  18
ENDBRANCH  16  17
ENDBRANCH  12  16
BRANCH   4  32
HETATM   32  C16 DU1 A1201      56.974  61.968 141.733  1.00  0.00     0.050 C
HETATM   33  C17 DU1 A1201      57.917  62.069 140.527  1.00  0.00     0.011 C
HETATM   34  C21 DU1 A1201      56.419  63.357 142.071  1.00  0.00     0.011 C
HETATM   35  C20 DU1 A1201      57.523  64.320 142.504  1.00  0.00     0.001 C
HETATM   36  C19 DU1 A1201      58.880  63.915 141.946  1.00  0.00     0.000 C
HETATM   37  C18 DU1 A1201      58.749  63.350 140.542  1.00  0.00     0.001 C
ENDBRANCH   4  32
TORSDOF 8
