REMARK  9 active torsions:
REMARK  status: ('A' for Active; 'I' for Inactive)
REMARK    1  A    between atoms: C1_1  and  O1_13
REMARK    2  A    between atoms: O1_13  and  C1'_14
REMARK    3  A    between atoms: C1'_14  and  C2'_15
REMARK    4  A    between atoms: C5_4  and  C6_22
REMARK    5  A    between atoms: C2'_15  and  C3'_16
REMARK    6  A    between atoms: C3'_16  and  C4'_17
REMARK    7  A    between atoms: C4'_17  and  C5'_18
REMARK    8  A    between atoms: C5'_18  and  C6'_19
REMARK    9  A    between atoms: C6'_19  and  C7'_20
ROOT
HETATM    1  C1  BOG A 411      14.003  46.225  36.122  1.00  0.00     0.282 C
HETATM    2  O3  BOG A 411      17.417  46.088  37.719  1.00  0.00    -0.386 OA
HETATM    3  O5  BOG A 411      13.456  45.250  36.993  1.00  0.00    -0.341 OA
HETATM    4  C5  BOG A 411      14.303  44.106  37.160  1.00  0.00     0.178 C
HETATM    5  H4  BOG A 411      17.211  43.681  38.520  1.00  0.00     0.210 HD
HETATM    6  C4  BOG A 411      15.579  44.541  37.867  1.00  0.00     0.177 C
HETATM    7  H2  BOG A 411      15.397  48.196  35.342  1.00  0.00     0.210 HD
HETATM    8  C2  BOG A 411      15.362  46.719  36.617  1.00  0.00     0.201 C
HETATM    9  H3  BOG A 411      17.864  46.734  37.185  1.00  0.00     0.210 HD
HETATM   10  O4  BOG A 411      16.415  43.410  38.079  1.00  0.00    -0.386 OA
HETATM   11  C3  BOG A 411      16.294  45.575  37.012  1.00  0.00     0.179 C
HETATM   12  O2  BOG A 411      15.977  47.485  35.588  1.00  0.00    -0.384 OA
ENDROOT
BRANCH   1  13
HETATM   13  O1  BOG A 411      13.142  47.330  36.099  1.00  0.00    -0.349 OA
BRANCH  13  14
HETATM   14  C1' BOG A 411      12.136  47.283  35.086  1.00  0.00     0.163 C
BRANCH  14  15
HETATM   15  C2' BOG A 411      11.502  48.649  34.986  1.00  0.00     0.028 C
BRANCH  15  16
HETATM   16  C3' BOG A 411      10.303  48.714  34.055  1.00  0.00     0.002 C
BRANCH  16  17
HETATM   17  C4' BOG A 411       9.062  48.016  34.588  1.00  0.00     0.000 C
BRANCH  17  18
HETATM   18  C5' BOG A 411       7.751  48.595  34.078  1.00  0.00    -0.000 C
BRANCH  18  19
HETATM   19  C6' BOG A 411       6.514  48.015  34.744  1.00  0.00    -0.000 C
BRANCH  19  20
HETATM   20  C7' BOG A 411       6.304  46.531  34.482  1.00  0.00    -0.003 C
HETATM   21  C8' BOG A 411       6.785  45.641  35.612  1.00  0.00     0.004 C
ENDBRANCH  19  20
ENDBRANCH  18  19
ENDBRANCH  17  18
ENDBRANCH  16  17
ENDBRANCH  15  16
ENDBRANCH  14  15
ENDBRANCH  13  14
ENDBRANCH   1  13
BRANCH   4  22
HETATM   22  C6  BOG A 411      13.516  43.076  37.932  1.00  0.00     0.190 C
HETATM   23  H6  BOG A 411      13.188  41.135  37.852  1.00  0.00     0.210 HD
HETATM   24  O6  BOG A 411      13.684  41.784  37.366  1.00  0.00    -0.392 OA
ENDBRANCH   4  22
TORSDOF 9
