REMARK  6 active torsions:
REMARK  status: ('A' for Active; 'I' for Inactive)
REMARK    1  A    between atoms: C16_3  and  C15_4
REMARK    2  A    between atoms: C16_3  and  C18_20
REMARK    3  A    between atoms: C15_4  and  O14_5
REMARK    4  A    between atoms: C18_20  and  N19_21
REMARK    5  A    between atoms: O14_5  and  C13_6
REMARK    6  A    between atoms: N19_21  and  C20_23
ROOT
HETATM    1  O17 CAU A 400      53.672  -5.956  24.035  1.00  0.00    -0.388 OA
HETATM    2  H17 CAU A 400      53.805  -5.249  24.656  1.00  0.00     0.210 HD
HETATM    3  C16 CAU A 400      52.983  -5.430  22.910  1.00  0.00     0.154 C
ENDROOT
BRANCH   3   4
HETATM    4  C15 CAU A 400      51.677  -4.815  23.362  1.00  0.00     0.200 C
BRANCH   4   5
HETATM    5  O14 CAU A 400      50.875  -4.536  22.211  1.00  0.00    -0.341 OA
BRANCH   5   6
HETATM    6  C13 CAU A 400      49.542  -4.358  22.502  1.00  0.00     0.086 A
HETATM    7  C2  CAU A 400      47.328  -3.781  18.201  1.00  0.00     0.020 A
HETATM    8  C12 CAU A 400      49.070  -4.367  23.812  1.00  0.00     0.033 A
HETATM    9  C1  CAU A 400      48.439  -3.908  17.363  1.00  0.00     0.002 A
HETATM   10  C6  CAU A 400      49.713  -4.134  17.880  1.00  0.00     0.001 A
HETATM   11  C11 CAU A 400      47.727  -4.176  24.073  1.00  0.00     0.004 A
HETATM   12  C10 CAU A 400      46.832  -3.982  23.034  1.00  0.00     0.021 A
HETATM   13  C8  CAU A 400      47.288  -3.971  21.732  1.00  0.00     0.030 A
HETATM   14  N7  CAU A 400      46.646  -3.802  20.583  1.00  0.00    -0.257 NA
HETATM   15  C3  CAU A 400      47.505  -3.879  19.573  1.00  0.00     0.028 A
HETATM   16  H7  CAU A 400      45.644  -3.638  20.490  1.00  0.00     0.134 HD
HETATM   17  C4  CAU A 400      48.774  -4.108  20.094  1.00  0.00     0.004 A
HETATM   18  C9  CAU A 400      48.633  -4.161  21.469  1.00  0.00     0.032 A
HETATM   19  C5  CAU A 400      49.878  -4.234  19.254  1.00  0.00     0.010 A
ENDBRANCH   5   6
ENDBRANCH   4   5
ENDBRANCH   3   4
BRANCH   3  20
HETATM   20  C18 CAU A 400      52.771  -6.561  21.917  1.00  0.00     0.114 C
BRANCH  20  21
HETATM   21  N19 CAU A 400      54.084  -7.019  21.428  1.00  0.00    -0.311 NA
HETATM   22  H19 CAU A 400      54.726  -6.268  21.177  1.00  0.00     0.122 HD
BRANCH  21  23
HETATM   23  C20 CAU A 400      53.746  -7.920  20.325  1.00  0.00     0.048 C
HETATM   24  C21 CAU A 400      54.050  -9.373  20.724  1.00  0.00     0.023 C
HETATM   25  C22 CAU A 400      54.490  -7.465  19.053  1.00  0.00     0.023 C
ENDBRANCH  21  23
ENDBRANCH  20  21
ENDBRANCH   3  20
TORSDOF 6
