REMARK  6 active torsions:
REMARK  status: ('A' for Active; 'I' for Inactive)
REMARK    1  A    between atoms: C15_4  and  N19_9
REMARK    2  A    between atoms: N19_9  and  C20_11
REMARK    3  A    between atoms: C11_7  and  O10_16
REMARK    4  A    between atoms: C20_11  and  C21_12
REMARK    5  A    between atoms: C20_11  and  C23_14
REMARK    6  A    between atoms: O10_16  and  C1_17
ROOT
HETATM    1  C18 1Q5 A 401     -41.002 -18.252  33.256  1.00  0.00     0.066 C
HETATM    2  C13 1Q5 A 401     -41.176 -19.302  34.303  1.00  0.00     0.043 A
HETATM    3  C14 1Q5 A 401     -42.401 -19.406  34.927  1.00  0.00     0.043 A
HETATM    4  C15 1Q5 A 401     -42.621 -20.356  35.903  1.00  0.00     0.024 A
HETATM    5  N12 1Q5 A 401     -40.142 -20.103  34.600  1.00  0.00    -0.228 NA
HETATM    6  C16 1Q5 A 401     -41.511 -21.245  36.246  1.00  0.00     0.017 A
HETATM    7  C11 1Q5 A 401     -40.245 -21.054  35.527  1.00  0.00     0.178 A
HETATM    8  C17 1Q5 A 401     -41.670 -22.305  37.296  1.00  0.00     0.050 C
ENDROOT
BRANCH   4   9
HETATM    9  N19 1Q5 A 401     -43.811 -20.471  36.518  1.00  0.00    -0.285 NA
HETATM   10  H19 1Q5 A 401     -43.875 -20.919  37.432  1.00  0.00     0.128 HD
BRANCH   9  11
HETATM   11  C20 1Q5 A 401     -44.996 -19.957  35.878  1.00  0.00     0.058 C
BRANCH  11  12
HETATM   12  C21 1Q5 A 401     -45.795 -21.066  35.229  1.00  0.00     0.015 C
HETATM   13  C22 1Q5 A 401     -44.886 -22.010  34.488  1.00  0.00     0.005 C
ENDBRANCH  11  12
BRANCH  11  14
HETATM   14  C23 1Q5 A 401     -45.855 -19.271  36.915  1.00  0.00     0.015 C
HETATM   15  C24 1Q5 A 401     -45.009 -18.430  37.839  1.00  0.00     0.005 C
ENDBRANCH  11  14
ENDBRANCH   9  11
ENDBRANCH   4   9
BRANCH   7  16
HETATM   16  O10 1Q5 A 401     -39.201 -21.855  35.817  1.00  0.00    -0.290 OA
BRANCH  16  17
HETATM   17  C1  1Q5 A 401     -37.999 -21.731  35.204  1.00  0.00     0.091 A
HETATM   18  C6  1Q5 A 401     -37.752 -22.233  33.840  1.00  0.00    -0.019 A
HETATM   19  C5  1Q5 A 401     -36.493 -22.079  33.286  1.00  0.00     0.009 A
HETATM   20  C8  1Q5 A 401     -38.858 -22.894  33.075  1.00  0.00     0.046 C
HETATM   21  C4  1Q5 A 401     -35.468 -21.461  34.003  1.00  0.00    -0.050 A
HETATM   22  C3  1Q5 A 401     -35.653 -20.979  35.288  1.00  0.00     0.009 A
HETATM   23  C7  1Q5 A 401     -34.109 -21.301  33.386  1.00  0.00     0.044 C
HETATM   24  C2  1Q5 A 401     -36.879 -21.095  35.911  1.00  0.00    -0.019 A
HETATM   25  C9  1Q5 A 401     -37.085 -20.579  37.295  1.00  0.00     0.046 C
ENDBRANCH  16  17
ENDBRANCH   7  16
TORSDOF 6
