MODEL        1
REMARK THIS MODEL IS IDENTICAL TO THE INPUT LIGAND AND NOT FROM DOCKING
REMARK 921   NORMALIZED FREE ENERGY PREDICTED BY IDOCK:   -5.30 KCAL/MOL
REMARK 922        TOTAL FREE ENERGY PREDICTED BY IDOCK:   -8.15 KCAL/MOL
REMARK 923 INTER-LIGAND FREE ENERGY PREDICTED BY IDOCK:   -7.47 KCAL/MOL
REMARK 924 INTRA-LIGAND FREE ENERGY PREDICTED BY IDOCK:   -0.68 KCAL/MOL
REMARK 927      BINDING AFFINITY PREDICTED BY RF-SCORE:    0.00 PKD
ROOT
HETATM    1  C1  ITD A1500      15.447   3.740  25.057  1.00  0.00    -0.213 C  
HETATM    2  C2  ITD A1500      16.639   4.411  25.718  1.00  0.00    -0.273 C  
HETATM    3  N1  ITD A1500      17.820   3.574  25.506  1.00  0.00     0.216 NA 
HETATM    4  C3  ITD A1500      16.876   5.824  25.211  1.00  0.00    -0.520 C  
HETATM    5  C4  ITD A1500      18.395   3.354  26.693  1.00  0.00    -0.394 C  
HETATM    6  N2  ITD A1500      17.674   3.862  27.649  1.00  0.00    -0.206 NA 
HETATM    7  C6  ITD A1500      16.447   4.519  27.227  1.00  0.00    -0.218 C  
HETATM    8  C7  ITD A1500      18.219   3.670  28.867  1.00  0.00    -0.191 C  
HETATM    9  S1  ITD A1500      19.844   2.575  27.206  1.00  0.00    -0.089 SA 
HETATM   10  C5  ITD A1500      19.450   2.964  28.852  1.00  0.00    -0.192 C  
ENDROOT
BRANCH   8  11
HETATM   11  C8  ITD A1500      17.526   4.196  30.094  1.00  0.00    -0.168 C  
BRANCH  11  12
HETATM   12  S2  ITD A1500      18.064   5.878  30.162  1.00  0.00    -0.053 SA 
BRANCH  12  13
HETATM   13  C9  ITD A1500      19.662   5.871  30.576  1.00  0.00    -0.271 C  
BRANCH  13  14
HETATM   14  N4  ITD A1500      20.659   6.519  29.921  1.00  0.00    -0.514 NA 
HETATM   15  H4  ITD A1500      21.506   6.622  30.479  1.00  0.00     0.000 HD 
BRANCH  14  16
HETATM   16  C16 ITD A1500      20.776   7.108  28.566  1.00  0.00    -0.179 C  
HETATM   17  C19 ITD A1500      20.008   8.796  26.205  1.00  0.00    -0.489 C  
HETATM   18  C20 ITD A1500      21.045   9.287  27.212  1.00  0.00    -0.624 C  
HETATM   19  C17 ITD A1500      19.982   6.479  27.402  1.00  0.00    -0.532 C  
HETATM   20  C21 ITD A1500      20.800   8.647  28.581  1.00  0.00    -0.381 C  
HETATM   21  C18 ITD A1500      20.020   7.267  26.077  1.00  0.00    -0.502 C  
ENDBRANCH  14  16
ENDBRANCH  13  14
BRANCH  13  22
HETATM   22  N3  ITD A1500      19.839   5.122  31.662  1.00  0.00    -0.196 NA 
HETATM   23  H3  ITD A1500      18.983   4.711  32.036  1.00  0.00     0.000 HD 
BRANCH  22  24
HETATM   24  C10 ITD A1500      21.020   4.795  32.393  1.00  0.00    -0.256 C  
HETATM   25  C15 ITD A1500      21.982   3.911  31.588  1.00  0.00    -0.262 C  
HETATM   26  C11 ITD A1500      21.678   6.025  33.010  1.00  0.00    -0.121 C  
HETATM   27  C14 ITD A1500      23.134   3.456  32.484  1.00  0.00    -0.311 C  
HETATM   28  C13 ITD A1500      23.839   4.666  33.105  1.00  0.00    -0.098 C  
HETATM   29  C12 ITD A1500      22.882   5.605  33.866  1.00  0.00    -0.431 C  
ENDBRANCH  22  24
ENDBRANCH  13  22
ENDBRANCH  12  13
ENDBRANCH  11  12
ENDBRANCH   8  11
TORSDOF 7
ENDMDL
