REMARK 10 active torsions:
REMARK  status: ('A' for Active; 'I' for Inactive)
REMARK    1  A    between atoms: C1_2  and  C15_4
REMARK    2  A    between atoms: C1_2  and  C2_18
REMARK    3  A    between atoms: C15_4  and  N2_5
REMARK    4  A    between atoms: C2_18  and  O2_19
REMARK    5  A    between atoms: O2_19  and  C3_20
REMARK    6  A    between atoms: N2_5  and  C16_7
REMARK    7  A    between atoms: C16_7  and  C17_8
REMARK    8  A    between atoms: C17_8  and  O3_9
REMARK    9  A    between atoms: O3_9  and  C18_10
REMARK   10  A    between atoms: C19_12  and  O4_16
ROOT
HETATM    1  O1  CVD A1359     -25.554 -11.713  23.371  1.00  0.00    -0.388 OA
HETATM    2  C1  CVD A1359     -24.628 -11.907  24.439  1.00  0.00     0.154 C
HETATM    3  H1  CVD A1359     -25.617 -10.770  23.277  1.00  0.00     0.210 HD
ENDROOT
BRANCH   2   4
HETATM    4  C15 CVD A1359     -24.526 -13.428  24.590  1.00  0.00     0.114 C
BRANCH   4   5
HETATM    5  N2  CVD A1359     -25.918 -13.934  24.664  1.00  0.00    -0.311 NA
HETATM    6  H2  CVD A1359     -26.492 -13.597  23.891  1.00  0.00     0.122 HD
BRANCH   5   7
HETATM    7  C16 CVD A1359     -25.902 -15.415  24.747  1.00  0.00     0.109 C
BRANCH   7   8
HETATM    8  C17 CVD A1359     -27.266 -15.866  25.274  1.00  0.00     0.182 C
BRANCH   8   9
HETATM    9  O3  CVD A1359     -28.283 -14.968  24.829  1.00  0.00    -0.341 OA
BRANCH   9  10
HETATM   10  C18 CVD A1359     -29.646 -15.229  25.030  1.00  0.00     0.106 A
HETATM   11  C23 CVD A1359     -30.472 -15.494  23.914  1.00  0.00     0.035 A
HETATM   12  C19 CVD A1359     -30.198 -15.221  26.336  1.00  0.00     0.106 A
HETATM   13  C21 CVD A1359     -32.389 -15.765  25.355  1.00  0.00     0.003 A
HETATM   14  C22 CVD A1359     -31.835 -15.765  24.064  1.00  0.00     0.003 A
HETATM   15  C20 CVD A1359     -31.577 -15.487  26.477  1.00  0.00     0.035 A
BRANCH  12  16
HETATM   16  O4  CVD A1359     -29.397 -14.997  27.477  1.00  0.00    -0.345 OA
HETATM   17  C24 CVD A1359     -29.387 -13.782  28.278  1.00  0.00     0.202 C
ENDBRANCH  12  16
ENDBRANCH   9  10
ENDBRANCH   8   9
ENDBRANCH   7   8
ENDBRANCH   5   7
ENDBRANCH   4   5
ENDBRANCH   2   4
BRANCH   2  18
HETATM   18  C2  CVD A1359     -23.298 -11.347  24.021  1.00  0.00     0.200 C
BRANCH  18  19
HETATM   19  O2  CVD A1359     -22.390 -11.523  25.102  1.00  0.00    -0.341 OA
BRANCH  19  20
HETATM   20  C3  CVD A1359     -21.044 -11.285  24.943  1.00  0.00     0.086 A
HETATM   21  C9  CVD A1359     -19.192 -13.250  28.988  1.00  0.00     0.020 A
HETATM   22  C10 CVD A1359     -20.402 -13.676  29.554  1.00  0.00     0.002 A
HETATM   23  C14 CVD A1359     -20.544 -10.668  23.785  1.00  0.00     0.033 A
HETATM   24  C13 CVD A1359     -19.183 -10.430  23.673  1.00  0.00     0.004 A
HETATM   25  C11 CVD A1359     -21.610 -13.455  28.901  1.00  0.00     0.001 A
HETATM   26  C12 CVD A1359     -18.334 -10.879  24.667  1.00  0.00     0.021 A
HETATM   27  C4  CVD A1359     -20.172 -11.731  25.911  1.00  0.00     0.032 A
HETATM   28  C8  CVD A1359     -21.604 -12.801  27.678  1.00  0.00     0.010 A
HETATM   29  C6  CVD A1359     -18.825 -11.524  25.787  1.00  0.00     0.030 A
HETATM   30  C5  CVD A1359     -20.409 -12.392  27.107  1.00  0.00     0.004 A
HETATM   31  N1  CVD A1359     -18.255 -12.039  26.943  1.00  0.00    -0.257 NA
HETATM   32  C7  CVD A1359     -19.209 -12.579  27.762  1.00  0.00     0.028 A
HETATM   33  H1  CVD A1359     -17.257 -12.018  27.154  1.00  0.00     0.134 HD
ENDBRANCH  19  20
ENDBRANCH  18  19
ENDBRANCH   2  18
TORSDOF 10
