REMARK  8 active torsions:
REMARK  status: ('A' for Active; 'I' for Inactive)
REMARK    1  A    between atoms: C8_5  and  C1_8
REMARK    2  A    between atoms: C2_9  and  O2_14
REMARK    3  A    between atoms: O2_14  and  C14_15
REMARK    4  A    between atoms: C14_15  and  C15_17
REMARK    5  A    between atoms: N1_11  and  C5_31
REMARK    6  A    between atoms: C5_31  and  C6_32
REMARK    7  A    between atoms: C7_35  and  C24_38
REMARK    8  A    between atoms: C24_38  and  N5_39
ROOT
HETATM    1  F7  L76 A2001     -12.974  53.085  55.700  1.00  0.00    -0.205 F
HETATM    2  C11 L76 A2001     -14.279  53.453  55.784  1.00  0.00     0.123 A
HETATM    3  C10 L76 A2001     -15.262  52.527  56.147  1.00  0.00     0.038 A
HETATM    4  C9  L76 A2001     -16.599  52.923  56.226  1.00  0.00     0.008 A
HETATM    5  C8  L76 A2001     -16.957  54.248  55.943  1.00  0.00    -0.025 A
HETATM    6  C12 L76 A2001     -14.634  54.769  55.501  1.00  0.00     0.038 A
HETATM    7  C13 L76 A2001     -15.965  55.156  55.575  1.00  0.00     0.008 A
ENDROOT
BRANCH   5   8
HETATM    8  C1  L76 A2001     -18.286  54.717  56.011  1.00  0.00     0.144 C
HETATM    9  C2  L76 A2001     -18.956  54.482  54.678  1.00  0.00     0.272 C
HETATM   10  O1  L76 A2001     -20.189  55.205  54.676  1.00  0.00    -0.348 OA
HETATM   11  N1  L76 A2001     -19.183  54.174  57.053  1.00  0.00    -0.283 NA
HETATM   12  C4  L76 A2001     -20.516  54.829  56.980  1.00  0.00     0.113 C
HETATM   13  C3  L76 A2001     -21.100  54.656  55.585  1.00  0.00     0.178 C
BRANCH   9  14
HETATM   14  O2  L76 A2001     -19.205  53.061  54.522  1.00  0.00    -0.342 OA
BRANCH  14  15
HETATM   15  C14 L76 A2001     -19.410  52.711  53.156  1.00  0.00     0.148 C
HETATM   16  C21 L76 A2001     -20.146  51.376  53.070  1.00  0.00     0.043 C
BRANCH  15  17
HETATM   17  C15 L76 A2001     -18.153  52.666  52.558  1.00  0.00    -0.018 A
HETATM   18  C20 L76 A2001     -17.886  53.554  51.527  1.00  0.00     0.018 A
HETATM   19  C16 L76 A2001     -17.161  51.798  53.014  1.00  0.00     0.018 A
HETATM   20  C19 L76 A2001     -16.635  53.552  50.935  1.00  0.00     0.056 A
HETATM   21  F3  L76 A2001     -15.238  50.331  53.958  1.00  0.00    -0.166 F
HETATM   22  C18 L76 A2001     -15.645  52.682  51.375  1.00  0.00     0.024 A
HETATM   23  C23 L76 A2001     -16.377  54.442  49.922  1.00  0.00     0.417 C
HETATM   24  F2  L76 A2001     -13.795  51.643  53.055  1.00  0.00    -0.166 F
HETATM   25  F4  L76 A2001     -16.976  54.049  48.804  1.00  0.00    -0.166 F
HETATM   26  C17 L76 A2001     -15.903  51.795  52.410  1.00  0.00     0.056 A
HETATM   27  F6  L76 A2001     -15.088  54.509  49.751  1.00  0.00    -0.166 F
HETATM   28  F5  L76 A2001     -16.851  55.682  50.322  1.00  0.00    -0.166 F
HETATM   29  F1  L76 A2001     -14.632  50.025  51.859  1.00  0.00    -0.166 F
HETATM   30  C22 L76 A2001     -14.886  50.940  52.828  1.00  0.00     0.417 C
ENDBRANCH  15  17
ENDBRANCH  14  15
ENDBRANCH   9  14
BRANCH  11  31
HETATM   31  C5  L76 A2001     -18.623  54.161  58.439  1.00  0.00     0.144 C
BRANCH  31  32
HETATM   32  C6  L76 A2001     -17.875  55.428  58.849  1.00  0.00     0.095 A
HETATM   33  N2  L76 A2001     -16.590  55.676  58.628  1.00  0.00    -0.181 NA
HETATM   34  N3  L76 A2001     -16.334  56.779  59.099  1.00  0.00    -0.103 NA
HETATM   35  C7  L76 A2001     -18.361  56.465  59.494  1.00  0.00     0.095 A
HETATM   36  N4  L76 A2001     -17.358  57.309  59.644  1.00  0.00    -0.181 NA
HETATM   37  H3  L76 A2001     -15.415  57.219  59.060  1.00  0.00     0.177 HD
BRANCH  35  38
HETATM   38  C24 L76 A2001     -19.785  56.671  60.013  1.00  0.00     0.142 C
BRANCH  38  39
HETATM   39  N5  L76 A2001     -19.792  56.637  61.492  1.00  0.00    -0.303 NA
HETATM   40  C26 L76 A2001     -21.166  56.818  61.990  1.00  0.00     0.105 C
HETATM   41  C25 L76 A2001     -19.191  55.390  62.020  1.00  0.00     0.105 C
ENDBRANCH  38  39
ENDBRANCH  35  38
ENDBRANCH  31  32
ENDBRANCH  11  31
ENDBRANCH   5   8
TORSDOF 8
