MODEL        1
REMARK THIS MODEL IS IDENTICAL TO THE INPUT LIGAND AND NOT FROM DOCKING
REMARK 921   NORMALIZED FREE ENERGY PREDICTED BY IDOCK:   -8.23 KCAL/MOL
REMARK 922        TOTAL FREE ENERGY PREDICTED BY IDOCK:  -13.33 KCAL/MOL
REMARK 923 INTER-LIGAND FREE ENERGY PREDICTED BY IDOCK:  -12.57 KCAL/MOL
REMARK 924 INTRA-LIGAND FREE ENERGY PREDICTED BY IDOCK:   -0.77 KCAL/MOL
REMARK 927      BINDING AFFINITY PREDICTED BY RF-SCORE:    0.00 PKD
ROOT
HETATM    1  C1  JSZ A1203       2.017   0.433  53.623  1.00  0.00    -0.336 C  
HETATM    2  O1  JSZ A1203       1.234  -0.427  53.987  1.00  0.00    -0.476 OA 
ENDROOT
BRANCH   1   3
HETATM    3  O2  JSZ A1203       3.165   0.794  54.448  1.00  0.00    -0.380 OA 
BRANCH   3   4
HETATM    4  C2  JSZ A1203       3.300   0.345  55.803  1.00  0.00    -0.357 C  
HETATM    5  C3  JSZ A1203       3.721   1.505  56.681  1.00  0.00    -0.591 C  
ENDBRANCH   3   4
ENDBRANCH   1   3
BRANCH   1   6
HETATM    6  C4  JSZ A1203       1.790   1.125  52.333  1.00  0.00    -0.369 A  
HETATM    7  O3  JSZ A1203       1.295   0.486  51.240  1.00  0.00    -0.428 OA 
HETATM    8  C10 JSZ A1203       0.706   2.158  48.050  1.00  0.00    -0.744 A  
HETATM    9  C9  JSZ A1203       0.752   1.131  48.994  1.00  0.00    -0.577 A  
HETATM   10  C8  JSZ A1203       1.215   1.405  50.276  1.00  0.00    -0.420 A  
HETATM   11  C7  JSZ A1203       1.630   2.695  50.627  1.00  0.00    -0.657 A  
HETATM   12  C12 JSZ A1203       1.586   3.723  49.675  1.00  0.00    -0.478 A  
HETATM   13  C5  JSZ A1203       2.013   2.545  51.970  1.00  0.00    -0.565 A  
HETATM   14  C11 JSZ A1203       1.117   3.445  48.390  1.00  0.00    -0.894 A  
HETATM   15  C6  JSZ A1203       2.534   3.726  52.744  1.00  0.00    -0.527 C  
BRANCH  12  16
HETATM   16  O4  JSZ A1203       1.968   5.008  49.979  1.00  0.00    -0.367 OA 
BRANCH  16  17
HETATM   17  C13 JSZ A1203       3.172   5.640  49.528  1.00  0.00    -0.480 C  
BRANCH  17  18
HETATM   18  C14 JSZ A1203       3.398   6.937  50.309  1.00  0.00    -0.339 C  
HETATM   19  O5  JSZ A1203       3.395   8.051  49.412  1.00  0.00    -0.949 OA 
HETATM   20  H5  JSZ A1203       3.535   8.856  49.897  1.00  0.00     0.000 HD 
BRANCH  18  21
HETATM   21  C15 JSZ A1203       2.314   7.168  51.358  1.00  0.00    -0.268 C  
BRANCH  21  22
HETATM   22  N1  JSZ A1203       2.585   8.406  52.111  1.00  0.00    -0.802 NA 
HETATM   23  H1  JSZ A1203       1.915   9.140  51.881  1.00  0.00     0.000 HD 
BRANCH  22  24
HETATM   24  C16 JSZ A1203       2.628   8.142  53.572  1.00  0.00    -0.306 C  
HETATM   25  C18 JSZ A1203       1.308   7.564  54.074  1.00  0.00    -0.671 C  
HETATM   26  C17 JSZ A1203       2.957   9.432  54.317  1.00  0.00    -0.581 C  
ENDBRANCH  22  24
ENDBRANCH  21  22
ENDBRANCH  18  21
ENDBRANCH  17  18
ENDBRANCH  16  17
ENDBRANCH  12  16
ENDBRANCH   1   6
TORSDOF 9
ENDMDL
