REMARK  6 active torsions:
REMARK  status: ('A' for Active; 'I' for Inactive)
REMARK    1  A    between atoms: C3_4  and  C17_20
REMARK    2  A    between atoms: C17_20  and  C18_23
REMARK    3  A    between atoms: C18_23  and  C21_24
REMARK    4  A    between atoms: C21_24  and  C22_25
REMARK    5  A    between atoms: C22_25  and  C23_26
REMARK    6  A    between atoms: C23_26  and  C24_27
ROOT
HETATM    1  C1  8D3 A 602     -39.903-164.552 306.043  1.00  0.00     0.079 A
HETATM    2  O1  8D3 A 602     -39.004-165.489 305.620  1.00  0.00    -0.359 OA
HETATM    3  C2  8D3 A 602     -40.234-163.510 305.189  1.00  0.00     0.037 A
HETATM    4  C3  8D3 A 602     -41.142-162.550 305.603  1.00  0.00    -0.037 A
HETATM    5  H1  8D3 A 602     -38.777-166.203 306.205  1.00  0.00     0.217 HD
HETATM    6  C12 8D3 A 602     -40.459-166.976 307.509  1.00  0.00     0.043 C
HETATM    7  C4  8D3 A 602     -41.720-162.689 306.855  1.00  0.00     0.037 A
HETATM    8  C10 8D3 A 602     -40.264-168.129 309.641  1.00  0.00    -0.001 C
HETATM    9  C9  8D3 A 602     -40.483-166.894 310.237  1.00  0.00    -0.020 C
HETATM   10  C16 8D3 A 602     -40.038-169.359 307.582  1.00  0.00     0.012 C
HETATM   11  C7  8D3 A 602     -41.230-163.558 307.805  1.00  0.00     0.083 A
HETATM   12  O2  8D3 A 602     -41.883-163.801 308.965  1.00  0.00    -0.338 OA
HETATM   13  C11 8D3 A 602     -40.254-168.156 308.247  1.00  0.00    -0.054 C
HETATM   14  C6  8D3 A 602     -41.403-164.717 310.006  1.00  0.00     0.077 C
HETATM   15  C5  8D3 A 602     -40.472-164.644 307.330  1.00  0.00     0.016 A
HETATM   16  C15 8D3 A 602     -40.107-164.179 310.625  1.00  0.00     0.042 C
HETATM   17  C14 8D3 A 602     -42.477-164.847 311.087  1.00  0.00     0.042 C
HETATM   18  C13 8D3 A 602     -40.191-165.652 308.265  1.00  0.00     0.038 C
HETATM   19  C8  8D3 A 602     -41.238-165.971 309.314  1.00  0.00     0.051 C
ENDROOT
BRANCH   4  20
HETATM   20  C17 8D3 A 602     -41.492-161.475 304.778  1.00  0.00    -0.010 C
HETATM   21  C20 8D3 A 602     -40.799-160.215 305.291  1.00  0.00     0.016 C
HETATM   22  C19 8D3 A 602     -41.009-161.751 303.355  1.00  0.00     0.016 C
BRANCH  20  23
HETATM   23  C18 8D3 A 602     -43.005-161.239 304.730  1.00  0.00     0.011 C
BRANCH  23  24
HETATM   24  C21 8D3 A 602     -43.733-162.448 304.138  1.00  0.00     0.001 C
BRANCH  24  25
HETATM   25  C22 8D3 A 602     -45.235-162.158 304.090  1.00  0.00     0.000 C
BRANCH  25  26
HETATM   26  C23 8D3 A 602     -45.965-163.352 303.464  1.00  0.00     0.001 C
BRANCH  26  27
HETATM   27  C24 8D3 A 602     -47.465-163.057 303.404  1.00  0.00     0.011 C
HETATM   28  C25 8D3 A 602     -48.229-164.218 302.754  1.00  0.00     0.080 C
HETATM   29 BR1  8D3 A 602     -48.015-165.878 303.742  1.00  0.00    -0.092 Br
ENDBRANCH  26  27
ENDBRANCH  25  26
ENDBRANCH  24  25
ENDBRANCH  23  24
ENDBRANCH  20  23
ENDBRANCH   4  20
TORSDOF 6
