REMARK  4 active torsions:
REMARK  status: ('A' for Active; 'I' for Inactive)
REMARK    1  A    between atoms: C6_3  and  C7_10
REMARK    2  A    between atoms: C8_11  and  C9_12
REMARK    3  A    between atoms: C10_13  and  C11_15
REMARK    4  A    between atoms: C12_16  and  C13_17
ROOT
HETATM    1  C1  RET A1000      19.347  44.696  60.681  1.00  0.00    -0.010 C
HETATM    2  C17 RET A1000      19.338  43.728  59.453  1.00  0.00     0.016 C
HETATM    3  C6  RET A1000      17.919  44.812  61.354  1.00  0.00    -0.043 C
HETATM    4  C16 RET A1000      19.793  46.052  60.134  1.00  0.00     0.016 C
HETATM    5  C5  RET A1000      17.694  44.428  62.652  1.00  0.00    -0.069 C
HETATM    6  C2  RET A1000      20.446  44.147  61.635  1.00  0.00     0.011 C
HETATM    7  C18 RET A1000      16.393  44.487  63.409  1.00  0.00     0.039 C
HETATM    8  C4  RET A1000      18.792  43.853  63.548  1.00  0.00     0.031 C
HETATM    9  C3  RET A1000      19.955  43.239  62.750  1.00  0.00     0.005 C
ENDROOT
BRANCH   3  10
HETATM   10  C7  RET A1000      16.815  45.369  60.466  1.00  0.00     0.004 C
HETATM   11  C8  RET A1000      15.757  44.613  59.937  1.00  0.00     0.003 C
BRANCH  11  12
HETATM   12  C9  RET A1000      14.583  44.987  59.136  1.00  0.00    -0.050 C
HETATM   13  C10 RET A1000      13.789  43.946  58.854  1.00  0.00     0.003 C
HETATM   14  C19 RET A1000      14.340  46.431  58.745  1.00  0.00     0.044 C
BRANCH  13  15
HETATM   15  C11 RET A1000      12.521  43.872  58.161  1.00  0.00     0.001 C
HETATM   16  C12 RET A1000      11.764  42.761  57.909  1.00  0.00     0.003 C
BRANCH  16  17
HETATM   17  C13 RET A1000      11.958  41.271  58.097  1.00  0.00    -0.055 C
HETATM   18  C14 RET A1000      10.936  40.408  57.813  1.00  0.00    -0.027 C
HETATM   19  C20 RET A1000      13.340  40.807  58.608  1.00  0.00     0.043 C
HETATM   20  C15 RET A1000      11.049  38.951  57.951  1.00  0.00     0.035 C
ENDBRANCH  16  17
ENDBRANCH  13  15
ENDBRANCH  11  12
ENDBRANCH   3  10
TORSDOF 4
