MODEL        1
REMARK THIS MODEL IS IDENTICAL TO THE INPUT LIGAND AND NOT FROM DOCKING
REMARK 921   NORMALIZED FREE ENERGY PREDICTED BY IDOCK:   -3.42 KCAL/MOL
REMARK 922        TOTAL FREE ENERGY PREDICTED BY IDOCK:   -4.64 KCAL/MOL
REMARK 923 INTER-LIGAND FREE ENERGY PREDICTED BY IDOCK:   -4.22 KCAL/MOL
REMARK 924 INTRA-LIGAND FREE ENERGY PREDICTED BY IDOCK:   -0.42 KCAL/MOL
REMARK 927      BINDING AFFINITY PREDICTED BY RF-SCORE:    0.00 PKD
ROOT
HETATM    1  C1  RET A1332      33.814  23.725  -1.647  1.00  0.00    -0.487 C  
HETATM    2  C2  RET A1332      33.713  22.193  -1.650  1.00  0.00    -0.535 C  
HETATM    3  C17 RET A1332      33.107  24.284  -0.408  1.00  0.00    -0.657 C  
HETATM    4  C16 RET A1332      32.971  24.176  -2.826  1.00  0.00    -0.307 C  
HETATM    5  C3  RET A1332      34.919  21.451  -1.131  1.00  0.00    -0.785 C  
HETATM    6  C4  RET A1332      36.246  21.933  -1.755  1.00  0.00    -0.750 C  
HETATM    7  C5  RET A1332      36.369  23.447  -1.822  1.00  0.00    -0.643 C  
HETATM    8  C6  RET A1332      35.281  24.275  -1.745  1.00  0.00    -0.547 C  
HETATM    9  C18 RET A1332      37.826  23.842  -1.875  1.00  0.00    -0.815 C  
ENDROOT
BRANCH   8  10
HETATM   10  C7  RET A1332      35.380  25.780  -1.726  1.00  0.00    -0.563 C  
HETATM   11  C8  RET A1332      36.107  26.494  -0.855  1.00  0.00    -0.607 C  
BRANCH  11  12
HETATM   12  C9  RET A1332      36.264  27.938  -0.731  1.00  0.00    -0.620 C  
HETATM   13  C19 RET A1332      35.490  28.855  -1.667  1.00  0.00    -0.499 C  
HETATM   14  C10 RET A1332      37.107  28.334   0.247  1.00  0.00    -0.688 C  
BRANCH  14  15
HETATM   15  C11 RET A1332      37.479  29.690   0.601  1.00  0.00    -0.677 C  
HETATM   16  C12 RET A1332      38.267  30.137   1.600  1.00  0.00    -0.269 C  
BRANCH  16  17
HETATM   17  C13 RET A1332      38.863  29.514   2.811  1.00  0.00    -0.572 C  
HETATM   18  C14 RET A1332      39.738  30.291   3.519  1.00  0.00     0.665 C  
HETATM   19  C20 RET A1332      38.514  28.118   3.285  1.00  0.00    -0.944 C  
HETATM   20  C15 RET A1332      40.380  29.904   4.785  1.00  0.00     6.079 C  
ENDBRANCH  16  17
ENDBRANCH  14  15
ENDBRANCH  11  12
ENDBRANCH   8  10
TORSDOF 4
ENDMDL
