REMARK  4 active torsions:
REMARK  status: ('A' for Active; 'I' for Inactive)
REMARK    1  A    between atoms: CBD_10  and  OAE_11
REMARK    2  A    between atoms: NAG_16  and  CAK_19
REMARK    3  A    between atoms: CAL_23  and  CAO_29
REMARK    4  A    between atoms: CAX_26  and  CBE_36
ROOT
HETATM    1  CBF 7DY A1210      19.460   7.048 -12.239  1.00  0.00     0.054 A
HETATM    2  CBG 7DY A1210      20.210   8.166 -11.896  1.00  0.00     0.018 A
HETATM    3  CBH 7DY A1210      21.568   8.159 -12.180  1.00  0.00     0.073 A
HETATM    4  CBI 7DY A1210      22.137   7.017 -12.759  1.00  0.00     0.126 A
HETATM    5  CBJ 7DY A1210      22.372   9.235 -11.865  1.00  0.00     0.419 C
HETATM    6  NAH 7DY A1210      21.355   5.915 -13.114  1.00  0.00    -0.231 NA
HETATM    7  FAB 7DY A1210      21.671  10.031 -10.983  1.00  0.00    -0.166 F
HETATM    8  FAD 7DY A1210      23.418   8.815 -11.275  1.00  0.00    -0.166 F
HETATM    9  FAC 7DY A1210      22.677  10.042 -12.939  1.00  0.00    -0.166 F
HETATM   10  CBD 7DY A1210      20.037   5.921 -12.842  1.00  0.00     0.169 A
ENDROOT
BRANCH  10  11
HETATM   11  OAE 7DY A1210      19.233   4.841 -13.119  1.00  0.00    -0.313 OA
HETATM   12  CAP 7DY A1210      19.852   3.558 -13.219  1.00  0.00     0.144 C
HETATM   13  CAU 7DY A1210      18.925   2.414 -12.898  1.00  0.00     0.051 C
HETATM   14  CAT 7DY A1210      20.546   3.360 -14.554  1.00  0.00     0.051 C
HETATM   15  CAQ 7DY A1210      20.949   3.468 -12.134  1.00  0.00     0.233 C
HETATM   16  NAG 7DY A1210      20.543   3.698 -10.875  1.00  0.00    -0.252 N
HETATM   17  OAF 7DY A1210      22.096   3.145 -12.430  1.00  0.00    -0.276 OA
HETATM   18  HAG 7DY A1210      19.546   3.816 -10.693  1.00  0.00     0.131 HD
BRANCH  16  19
HETATM   19  CAK 7DY A1210      21.496   3.786  -9.739  1.00  0.00     0.066 C
HETATM   20  CAN 7DY A1210      21.162   5.029  -8.906  1.00  0.00     0.025 C
HETATM   21  CAJ 7DY A1210      21.425   2.564  -8.810  1.00  0.00     0.040 C
HETATM   22  CAM 7DY A1210      22.489   2.581  -7.883  1.00  0.00    -0.041 A
HETATM   23  CAL 7DY A1210      21.430   1.271  -9.656  1.00  0.00     0.044 C
HETATM   24  CAS 7DY A1210      23.805   2.486  -8.329  1.00  0.00     0.004 A
HETATM   25  CAR 7DY A1210      22.250   2.697  -6.503  1.00  0.00     0.021 A
HETATM   26  CAX 7DY A1210      23.315   2.667  -5.587  1.00  0.00     0.029 A
HETATM   27  CAY 7DY A1210      24.861   2.466  -7.410  1.00  0.00     0.001 A
HETATM   28  CAZ 7DY A1210      24.624   2.551  -6.042  1.00  0.00     0.017 A
BRANCH  23  29
HETATM   29  CAO 7DY A1210      21.066   0.139  -8.909  1.00  0.00    -0.047 A
HETATM   30  CAV 7DY A1210      21.758  -1.051  -9.087  1.00  0.00     0.005 A
HETATM   31  CBC 7DY A1210      20.368  -2.112  -7.442  1.00  0.00     0.041 A
HETATM   32  CBB 7DY A1210      19.648  -0.944  -7.295  1.00  0.00     0.020 A
HETATM   33 CLA  7DY A1210      19.897  -3.515  -6.580  1.00  0.00    -0.084 Cl
HETATM   34  CAW 7DY A1210      19.981   0.171  -8.041  1.00  0.00     0.005 A
HETATM   35  CBA 7DY A1210      21.427  -2.163  -8.332  1.00  0.00     0.020 A
ENDBRANCH  23  29
BRANCH  26  36
HETATM   36  CBE 7DY A1210      23.079   2.792  -4.141  1.00  0.00    -0.062 C
HETATM   37  NAI 7DY A1210      22.947   2.892  -2.940  1.00  0.00    -0.269 NA
HETATM   38 2HAI 7DY A1210      23.957   2.842  -2.806  1.00  0.00     0.133 HD
HETATM   39 1HAI 7DY A1210      22.783   2.979  -1.937  1.00  0.00     0.133 HD
ENDBRANCH  26  36
ENDBRANCH  16  19
ENDBRANCH  10  11
TORSDOF 4
