REMARK  7 active torsions:
REMARK  status: ('A' for Active; 'I' for Inactive)
REMARK    1  A    between atoms: N1_3  and  C1_10
REMARK    2  A    between atoms: N2_17  and  C10_18
REMARK    3  A    between atoms: C10_18  and  C12_19
REMARK    4  A    between atoms: C12_19  and  C13_20
REMARK    5  A    between atoms: C13_20  and  C15_21
REMARK    6  A    between atoms: C13_20  and  N5_26
REMARK    7  A    between atoms: C16_28  and  C17_30
ROOT
HETATM    1  C4  A4X A2003      -8.778  22.804  22.891  1.00  0.00     0.117 A
HETATM    2  C11 A4X A2003      -8.683  21.824  24.067  1.00  0.00     0.045 C
HETATM    3  N1  A4X A2003      -7.777  23.334  22.182  1.00  0.00    -0.214 NA
HETATM    4  C20 A4X A2003      -8.983  22.542  25.390  1.00  0.00     0.015 C
HETATM    5  C19 A4X A2003      -9.643  20.654  23.852  1.00  0.00     0.015 C
HETATM    6  C7  A4X A2003      -8.438  24.100  21.314  1.00  0.00     0.111 A
HETATM    7  N3  A4X A2003      -9.931  23.275  22.425  1.00  0.00    -0.140 NA
HETATM    8  N4  A4X A2003      -9.740  24.002  21.547  1.00  0.00    -0.141 NA
HETATM    9  C14 A4X A2003      -7.859  24.995  20.209  1.00  0.00     0.081 C
ENDROOT
BRANCH   3  10
HETATM   10  C1  A4X A2003      -6.264  23.175  22.235  1.00  0.00     0.072 C
HETATM   11  C2  A4X A2003      -4.242  21.706  21.609  1.00  0.00     0.058 C
HETATM   12  C5  A4X A2003      -5.722  22.043  21.310  1.00  0.00     0.038 C
HETATM   13  C8  A4X A2003      -3.310  22.918  21.404  1.00  0.00     0.020 C
HETATM   14  C9  A4X A2003      -3.188  23.573  22.804  1.00  0.00     0.020 C
HETATM   15  C3  A4X A2003      -4.116  22.722  23.678  1.00  0.00     0.058 C
HETATM   16  C6  A4X A2003      -5.588  23.288  23.664  1.00  0.00     0.038 C
HETATM   17  N2  A4X A2003      -4.072  21.382  23.045  1.00  0.00    -0.296 NA
BRANCH  17  18
HETATM   18  C10 A4X A2003      -2.872  20.582  23.399  1.00  0.00     0.087 C
BRANCH  18  19
HETATM   19  C12 A4X A2003      -2.909  19.173  22.820  1.00  0.00     0.039 C
BRANCH  19  20
HETATM   20  C13 A4X A2003      -1.768  18.399  23.462  1.00  0.00     0.093 C
BRANCH  20  21
HETATM   21  C15 A4X A2003      -2.102  17.962  24.899  1.00  0.00    -0.023 A
HETATM   22  C27 A4X A2003      -1.585  17.578  27.052  1.00  0.00     0.045 A
HETATM   23  C25 A4X A2003      -1.151  17.933  25.847  1.00  0.00     0.013 A
HETATM   24  C26 A4X A2003      -3.339  17.630  25.294  1.00  0.00     0.050 A
HETATM   25  S1  A4X A2003      -3.222  17.297  26.874  1.00  0.00    -0.105 SA
ENDBRANCH  20  21
BRANCH  20  26
HETATM   26  N5  A4X A2003      -1.404  17.263  22.615  1.00  0.00    -0.251 N
HETATM   27  H5  A4X A2003      -1.941  16.401  22.707  1.00  0.00     0.131 HD
HETATM   28  C16 A4X A2003      -0.399  17.296  21.722  1.00  0.00     0.204 C
HETATM   29  O1  A4X A2003       0.331  18.272  21.502  1.00  0.00    -0.279 OA
BRANCH  28  30
HETATM   30  C17 A4X A2003      -0.273  16.007  20.905  1.00  0.00     0.072 C
HETATM   31  C23 A4X A2003      -0.941  14.948  18.687  1.00  0.00     0.076 C
HETATM   32  C21 A4X A2003      -1.067  16.189  19.590  1.00  0.00     0.018 C
HETATM   33  C18 A4X A2003       0.541  14.612  18.409  1.00  0.00     0.249 C
HETATM   34  F2  A4X A2003       0.579  13.466  17.710  1.00  0.00    -0.206 F
HETATM   35  F1  A4X A2003       1.108  15.621  17.646  1.00  0.00    -0.206 F
HETATM   36  C24 A4X A2003       1.327  14.409  19.733  1.00  0.00     0.076 C
HETATM   37  C22 A4X A2003       1.212  15.652  20.640  1.00  0.00     0.018 C
ENDBRANCH  28  30
ENDBRANCH  20  26
ENDBRANCH  19  20
ENDBRANCH  18  19
ENDBRANCH  17  18
ENDBRANCH   3  10
TORSDOF 7
