MODEL        1
REMARK THIS MODEL IS IDENTICAL TO THE INPUT LIGAND AND NOT FROM DOCKING
REMARK 921   NORMALIZED FREE ENERGY PREDICTED BY IDOCK:  -10.82 KCAL/MOL
REMARK 922        TOTAL FREE ENERGY PREDICTED BY IDOCK:  -12.83 KCAL/MOL
REMARK 923 INTER-LIGAND FREE ENERGY PREDICTED BY IDOCK:  -12.08 KCAL/MOL
REMARK 924 INTRA-LIGAND FREE ENERGY PREDICTED BY IDOCK:   -0.74 KCAL/MOL
REMARK 927      BINDING AFFINITY PREDICTED BY RF-SCORE:    0.00 PKD
ROOT
HETATM    1  C28 0HK A 501     -13.804 -13.946  38.703  1.00  0.00    -0.513 C  
HETATM    2  C43 0HK A 501     -10.822 -17.046  40.691  1.00  0.00    -0.565 A  
HETATM    3  C30 0HK A 501     -13.678 -15.473  38.431  1.00  0.00    -0.438 C  
HETATM    4  O29 0HK A 501     -14.413 -13.531  39.648  1.00  0.00    -0.784 OA 
HETATM    5  S37 0HK A 501     -13.821 -17.511  36.482  1.00  0.00    -0.189 SA 
HETATM    6  C31 0HK A 501     -13.625 -15.879  36.959  1.00  0.00    -0.363 A  
HETATM    7  H29 0HK A 501     -14.490 -12.599  39.814  1.00  0.00     0.000 HD 
HETATM    8  C32 0HK A 501     -12.450 -16.094  39.097  1.00  0.00    -0.403 A  
HETATM    9  O33 0HK A 501     -14.845 -16.030  39.017  1.00  0.00    -0.612 OA 
HETATM   10  S44 0HK A 501     -12.460 -16.543  40.755  1.00  0.00    -0.451 SA 
HETATM   11  C41 0HK A 501     -11.180 -16.350  38.534  1.00  0.00    -0.647 A  
HETATM   12  C34 0HK A 501     -13.441 -15.075  35.848  1.00  0.00    -0.446 A  
HETATM   13  H33 0HK A 501     -14.878 -15.778  39.932  1.00  0.00     0.000 HD 
HETATM   14  C42 0HK A 501     -10.274 -16.891  39.471  1.00  0.00    -0.721 A  
HETATM   15  C35 0HK A 501     -13.469 -15.800  34.647  1.00  0.00    -0.462 A  
HETATM   16  C36 0HK A 501     -13.666 -17.114  34.841  1.00  0.00     0.070 A  
ENDROOT
BRANCH   1  17
HETATM   17  O11 0HK A 501     -12.636 -13.449  38.279  1.00  0.00    -0.389 OA 
BRANCH  17  18
HETATM   18  C5  0HK A 501     -12.420 -12.004  38.365  1.00  0.00    -0.433 C  
HETATM   19  C9  0HK A 501      -9.636 -12.993  37.899  1.00  0.00    -0.270 C  
HETATM   20  C4  0HK A 501     -11.560 -11.640  37.145  1.00  0.00    -0.708 C  
HETATM   21  O10 0HK A 501      -8.478 -13.113  38.745  1.00  0.00    -0.741 OA 
HETATM   22  C3  0HK A 501     -10.042 -11.593  37.447  1.00  0.00    -0.418 C  
HETATM   23  C8  0HK A 501      -9.786 -13.017  39.340  1.00  0.00    -0.180 C  
HETATM   24  C7  0HK A 501     -10.284 -11.635  39.743  1.00  0.00    -0.511 C  
HETATM   25  C6  0HK A 501     -11.818 -11.703  39.745  1.00  0.00    -0.737 C  
HETATM   26  N2  0HK A 501      -9.707 -10.746  38.531  1.00  0.00    -0.402 N  
HETATM   27  C12 0HK A 501      -8.240 -10.406  38.649  1.00  0.00    -0.120 C  
HETATM   28  C1  0HK A 501     -10.304  -9.360  38.433  1.00  0.00    -0.654 C  
ENDBRANCH  17  18
ENDBRANCH   1  17
TORSDOF 2
ENDMDL
