REMARK  2 active torsions:
REMARK  status: ('A' for Active; 'I' for Inactive)
REMARK    1  A    between atoms: C28_1  and  O11_16
REMARK    2  A    between atoms: O11_16  and  C5_17
ROOT
HETATM    1  C28 0HK A1201      50.674   7.754  61.364  1.00  0.00     0.305 C
HETATM    2  C30 0HK A1201      52.170   7.693  61.208  1.00  0.00     0.214 C
HETATM    3  O29 0HK A1201      49.924   7.251  60.534  1.00  0.00    -0.261 OA
HETATM    4  C43 0HK A1201      53.861   5.724  64.511  1.00  0.00     0.045 A
HETATM    5  S37 0HK A1201      54.371   9.679  61.064  1.00  0.00    -0.098 SA
HETATM    6  O33 0HK A1201      52.435   6.936  60.090  1.00  0.00    -0.370 OA
HETATM    7  C31 0HK A1201      52.693   9.095  61.064  1.00  0.00     0.036 A
HETATM    8  C32 0HK A1201      52.776   7.095  62.453  1.00  0.00     0.036 A
HETATM    9  C41 0HK A1201      53.081   7.753  63.618  1.00  0.00     0.015 A
HETATM   10  S44 0HK A1201      53.282   5.428  62.834  1.00  0.00    -0.098 SA
HETATM   11  C34 0HK A1201      51.983  10.263  60.897  1.00  0.00     0.015 A
HETATM   12  H33 0HK A1201      53.379   6.898  59.992  1.00  0.00     0.212 HD
HETATM   13  C36 0HK A1201      54.027  11.424  60.844  1.00  0.00     0.045 A
HETATM   14  C35 0HK A1201      52.657  11.442  60.785  1.00  0.00     0.008 A
HETATM   15  C42 0HK A1201      53.625   7.069  64.652  1.00  0.00     0.008 A
ENDROOT
BRANCH   1  16
HETATM   16  O11 0HK A1201      50.181   8.408  62.509  1.00  0.00    -0.309 OA
BRANCH  16  17
HETATM   17  C5  0HK A1201      48.815   8.401  62.865  1.00  0.00     0.132 C
HETATM   18  C8  0HK A1201      49.993   7.276  65.227  1.00  0.00     0.180 C
HETATM   19  C9  0HK A1201      50.103   8.734  65.396  1.00  0.00     0.180 C
HETATM   20  C6  0HK A1201      48.420   7.067  63.478  1.00  0.00     0.068 C
HETATM   21  C7  0HK A1201      48.492   7.104  64.983  1.00  0.00     0.222 C
HETATM   22  O10 0HK A1201      50.505   7.837  66.432  1.00  0.00    -0.364 OA
HETATM   23  C3  0HK A1201      48.662   9.211  65.224  1.00  0.00     0.222 C
HETATM   24  N2  0HK A1201      47.810   8.168  65.620  1.00  0.00    -0.044 N
HETATM   25  C4  0HK A1201      48.571   9.584  63.773  1.00  0.00     0.068 C
HETATM   26  C12 0HK A1201      47.675   7.999  67.062  1.00  0.00     0.267 C
HETATM   27  C1  0HK A1201      46.449   8.369  65.244  1.00  0.00     0.267 C
ENDBRANCH  16  17
ENDBRANCH   1  16
TORSDOF 2
