MODEL        1
REMARK THIS MODEL IS IDENTICAL TO THE INPUT LIGAND AND NOT FROM DOCKING
REMARK 921   NORMALIZED FREE ENERGY PREDICTED BY IDOCK:   -7.00 KCAL/MOL
REMARK 922        TOTAL FREE ENERGY PREDICTED BY IDOCK:  -10.95 KCAL/MOL
REMARK 923 INTER-LIGAND FREE ENERGY PREDICTED BY IDOCK:  -10.69 KCAL/MOL
REMARK 924 INTRA-LIGAND FREE ENERGY PREDICTED BY IDOCK:   -0.26 KCAL/MOL
REMARK 927      BINDING AFFINITY PREDICTED BY RF-SCORE:    0.00 PKD
ROOT
HETATM    1  C1  BOG A 405      14.025  45.897  35.513  1.00  0.00    -0.333 C  
HETATM    2  O3  BOG A 405      17.830  45.835  35.851  1.00  0.00    -0.677 OA 
HETATM    3  O5  BOG A 405      13.760  45.324  36.801  1.00  0.00    -0.473 OA 
HETATM    4  C5  BOG A 405      14.743  44.432  37.348  1.00  0.00    -0.392 C  
HETATM    5  H4  BOG A 405      16.855  44.065  38.838  1.00  0.00     0.000 HD 
HETATM    6  C4  BOG A 405      16.108  45.097  37.350  1.00  0.00    -0.375 C  
HETATM    7  H2  BOG A 405      16.685  46.832  33.836  1.00  0.00     0.000 HD 
HETATM    8  C2  BOG A 405      15.483  46.353  35.334  1.00  0.00    -0.391 C  
HETATM    9  H3  BOG A 405      18.453  45.215  36.211  1.00  0.00     0.000 HD 
HETATM   10  O4  BOG A 405      17.090  44.230  37.932  1.00  0.00    -0.416 OA 
HETATM   11  C3  BOG A 405      16.481  45.359  35.911  1.00  0.00    -0.329 C  
HETATM   12  O2  BOG A 405      15.784  46.550  33.947  1.00  0.00    -0.842 OA 
ENDROOT
BRANCH   1  13
HETATM   13  O1  BOG A 405      13.193  47.049  35.373  1.00  0.00    -0.355 OA 
BRANCH  13  14
HETATM   14  C1' BOG A 405      11.812  46.755  35.167  1.00  0.00    -0.381 C  
BRANCH  14  15
HETATM   15  C2' BOG A 405      11.037  48.065  35.110  1.00  0.00    -0.745 C  
BRANCH  15  16
HETATM   16  C3' BOG A 405      10.081  48.120  33.923  1.00  0.00    -0.623 C  
BRANCH  16  17
HETATM   17  C4' BOG A 405       8.734  48.724  34.326  1.00  0.00    -0.732 C  
BRANCH  17  18
HETATM   18  C5' BOG A 405       7.637  48.435  33.300  1.00  0.00    -0.580 C  
BRANCH  18  19
HETATM   19  C6' BOG A 405       6.356  47.956  33.970  1.00  0.00    -0.641 C  
BRANCH  19  20
HETATM   20  C7' BOG A 405       6.111  46.494  33.629  1.00  0.00    -0.691 C  
HETATM   21  C8' BOG A 405       6.158  45.617  34.864  1.00  0.00    -0.761 C  
ENDBRANCH  19  20
ENDBRANCH  18  19
ENDBRANCH  17  18
ENDBRANCH  16  17
ENDBRANCH  15  16
ENDBRANCH  14  15
ENDBRANCH  13  14
ENDBRANCH   1  13
BRANCH   4  22
HETATM   22  C6  BOG A 405      14.383  44.065  38.782  1.00  0.00    -0.359 C  
HETATM   23  H6  BOG A 405      14.599  44.913  40.513  1.00  0.00     0.000 HD 
HETATM   24  O6  BOG A 405      14.823  45.142  39.619  1.00  0.00    -0.591 OA 
ENDBRANCH   4  22
TORSDOF 9
ENDMDL
