REMARK  4 active torsions:
REMARK  status: ('A' for Active; 'I' for Inactive)
REMARK    1  A    between atoms: C04_3  and  C05_5
REMARK    2  A    between atoms: N08_8  and  C15_15
REMARK    3  A    between atoms: C15_15  and  C16_16
REMARK    4  A    between atoms: C19_17  and  S26_26
ROOT
HETATM    1  O01 FSY A2401       0.687  85.789 283.702  1.00  0.00    -0.648 OA
HETATM    2  C02 FSY A2401       1.833  85.290 283.426  1.00  0.00     0.181 C
HETATM    3  C04 FSY A2401       3.095  86.151 283.593  1.00  0.00     0.145 C
HETATM    4  O03 FSY A2401       1.915  84.139 283.038  1.00  0.00    -0.648 OA
ENDROOT
BRANCH   3   5
HETATM    5  C05 FSY A2401       4.456  85.378 283.390  1.00  0.00    -0.013 A
HETATM    6  C06 FSY A2401       5.573  85.801 282.633  1.00  0.00     0.003 A
HETATM    7  C07 FSY A2401       5.677  87.123 281.842  1.00  0.00     0.057 C
HETATM    8  N08 FSY A2401       6.508  84.905 282.712  1.00  0.00    -0.228 NA
HETATM    9  C09 FSY A2401       6.110  83.871 283.483  1.00  0.00     0.121 A
HETATM   10  C12 FSY A2401       4.967  81.983 285.081  1.00  0.00     0.020 A
HETATM   11  C10 FSY A2401       4.834  84.117 283.936  1.00  0.00     0.017 A
HETATM   12  N14 FSY A2401       6.778  82.771 283.797  1.00  0.00    -0.243 NA
HETATM   13  C11 FSY A2401       4.228  83.141 284.767  1.00  0.00     0.013 A
HETATM   14  C13 FSY A2401       6.240  81.834 284.578  1.00  0.00     0.112 A
BRANCH   8  15
HETATM   15  C15 FSY A2401       7.772  85.002 282.079  1.00  0.00     0.132 C
BRANCH  15  16
HETATM   16  C16 FSY A2401       7.640  84.702 280.531  1.00  0.00    -0.019 A
HETATM   17  C19 FSY A2401       7.318  84.078 277.833  1.00  0.00    -0.595 A
HETATM   18  C17 FSY A2401       6.819  83.642 280.138  1.00  0.00     0.023 A
HETATM   19  F25 FSY A2401       9.750  86.609 281.208  1.00  0.00    -0.166 F
HETATM   20  C18 FSY A2401       6.661  83.330 278.790  1.00  0.00     0.123 A
HETATM   21  C20 FSY A2401       8.127  85.130 278.208  1.00  0.00     0.135 A
HETATM   22  F23 FSY A2401       8.568  87.728 279.706  1.00  0.00    -0.166 F
HETATM   23  C21 FSY A2401       8.302  85.455 279.568  1.00  0.00     0.076 A
HETATM   24  F24 FSY A2401      10.249  86.615 279.028  1.00  0.00    -0.166 F
HETATM   25  C22 FSY A2401       9.222  86.640 279.880  1.00  0.00     0.419 C
BRANCH  17  26
HETATM   26  S26 FSY A2401       7.110  83.672 276.077  1.00  0.00     2.498 S
HETATM   27  O27 FSY A2401       6.927  82.131 275.934  1.00  0.00    -0.933 OA
HETATM   28  C29 FSY A2401       5.655  84.531 275.436  1.00  0.00    -0.320 C
HETATM   29  O28 FSY A2401       8.329  84.118 275.314  1.00  0.00    -0.933 OA
ENDBRANCH  17  26
ENDBRANCH  15  16
ENDBRANCH   8  15
ENDBRANCH   3   5
TORSDOF 4
