MODEL        1
REMARK THIS MODEL IS IDENTICAL TO THE INPUT LIGAND AND NOT FROM DOCKING
REMARK 921   NORMALIZED FREE ENERGY PREDICTED BY IDOCK:   -6.71 KCAL/MOL
REMARK 922        TOTAL FREE ENERGY PREDICTED BY IDOCK:   -9.11 KCAL/MOL
REMARK 923 INTER-LIGAND FREE ENERGY PREDICTED BY IDOCK:   -8.67 KCAL/MOL
REMARK 924 INTRA-LIGAND FREE ENERGY PREDICTED BY IDOCK:   -0.44 KCAL/MOL
REMARK 927      BINDING AFFINITY PREDICTED BY RF-SCORE:    0.00 PKD
ROOT
HETATM    1  O2  P32 A 400      32.560  38.239  21.414  1.00  0.00    -0.135 OA 
HETATM    2  H2  P32 A 400      32.360  38.359  20.493  1.00  0.00     0.000 HD 
HETATM    3  C10 P32 A 400      33.597  37.268  21.610  1.00  0.00    -0.387 C  
ENDROOT
BRANCH   3   4
HETATM    4  C9  P32 A 400      33.120  35.957  21.040  1.00  0.00    -0.370 C  
BRANCH   4   5
HETATM    5  O1  P32 A 400      33.095  35.015  22.073  1.00  0.00    -0.361 OA 
BRANCH   5   6
HETATM    6  C4  P32 A 400      32.882  33.704  21.798  1.00  0.00    -0.511 A  
HETATM    7  C5  P32 A 400      31.688  33.313  21.257  1.00  0.00    -0.825 A  
HETATM    8  C6  P32 A 400      31.462  31.967  20.976  1.00  0.00    -0.709 A  
HETATM    9  C7  P32 A 400      32.397  30.952  21.232  1.00  0.00    -0.708 A  
HETATM   10  C8  P32 A 400      33.643  31.226  21.782  1.00  0.00    -0.392 A  
HETATM   11  C3  P32 A 400      33.920  32.656  22.091  1.00  0.00    -0.643 A  
HETATM   12  C2  P32 A 400      35.252  32.846  22.667  1.00  0.00    -0.629 A  
HETATM   13  C1  P32 A 400      35.617  31.394  22.563  1.00  0.00    -0.231 A  
HETATM   14  N1  P32 A 400      34.746  30.476  22.131  1.00  0.00     0.163 NA 
HETATM   15  C16 P32 A 400      36.776  31.052  23.111  1.00  0.00    -0.299 C  
HETATM   16  N3  P32 A 400      37.794  30.762  23.611  1.00  0.00    -0.505 NA 
HETATM   17  H1  P32 A 400      34.868  29.465  22.074  1.00  0.00     0.000 HD 
ENDBRANCH   5   6
ENDBRANCH   4   5
ENDBRANCH   3   4
BRANCH   3  18
HETATM   18  C11 P32 A 400      33.918  37.075  23.087  1.00  0.00    -0.431 C  
BRANCH  18  19
HETATM   19  N2  P32 A 400      34.168  38.366  23.685  1.00  0.00    -0.544 NA 
HETATM   20  H2  P32 A 400      34.118  39.189  23.084  1.00  0.00     0.000 HD 
HETATM   21  C14 P32 A 400      35.084  39.970  25.217  1.00  0.00    -0.378 C  
HETATM   22  C12 P32 A 400      34.488  38.567  25.097  1.00  0.00    -0.259 C  
HETATM   23  C13 P32 A 400      33.285  38.440  26.028  1.00  0.00    -0.312 C  
HETATM   24  C15 P32 A 400      35.500  37.570  25.566  1.00  0.00    -0.211 C  
ENDBRANCH  18  19
ENDBRANCH   3  18
TORSDOF 5
ENDMDL
