REMARK  7 active torsions:
REMARK  status: ('A' for Active; 'I' for Inactive)
REMARK    1  A    between atoms: N_1  and  CA_5
REMARK    2  A    between atoms: CA_5  and  C_6
REMARK    3  A    between atoms: CA_5  and  CB_10
REMARK    4  A    between atoms: CAB_3  and  CAM_14
REMARK    5  A    between atoms: C_6  and  OAF_8
REMARK    6  A    between atoms: NAO_17  and  CAP_23
REMARK    7  A    between atoms: CAP_23  and  CAQ_24
ROOT
HETATM    1  N   KCA R 501      89.376 131.042 121.850  1.00  0.00    -0.240 N
HETATM    2  OAA KCA R 501      88.440 132.050 120.095  1.00  0.00    -0.272 OA
HETATM    3  CAB KCA R 501      89.418 131.480 120.588  1.00  0.00     0.252 C
HETATM    4  H   KCA R 501      90.144 130.492 122.236  1.00  0.00     0.132 HD
ENDROOT
BRANCH   1   5
HETATM    5  CA  KCA R 501      88.196 131.370 122.675  1.00  0.00     0.163 C
BRANCH   5   6
HETATM    6  C   KCA R 501      88.164 132.892 122.980  1.00  0.00     0.280 C
HETATM    7  O   KCA R 501      87.319 133.561 122.384  1.00  0.00    -0.263 OA
BRANCH   6   8
HETATM    8  OAF KCA R 501      89.075 133.446 123.826  1.00  0.00    -0.317 OA
HETATM    9  CAG KCA R 501      88.847 134.859 123.986  1.00  0.00     0.205 C
ENDBRANCH   6   8
ENDBRANCH   5   6
BRANCH   5  10
HETATM   10  CB  KCA R 501      88.165 130.418 123.895  1.00  0.00    -0.013 C
HETATM   11  CG1 KCA R 501      86.883 130.675 124.671  1.00  0.00     0.013 C
HETATM   12  CAL KCA R 501      89.379 130.473 124.835  1.00  0.00     0.013 C
HETATM   13  CG2 KCA R 501      88.133 129.001 123.332  1.00  0.00     0.013 C
ENDBRANCH   5  10
ENDBRANCH   1   5
BRANCH   3  14
HETATM   14  CAM KCA R 501      90.532 131.162 119.893  1.00  0.00     0.146 A
HETATM   15  CAY KCA R 501      90.799 131.413 118.604  1.00  0.00     0.027 A
HETATM   16  NAN KCA R 501      91.533 130.465 120.418  1.00  0.00    -0.183 NA
HETATM   17  NAO KCA R 501      92.428 130.298 119.445  1.00  0.00    -0.143 NA
HETATM   18  CAZ KCA R 501      90.154 132.057 117.638  1.00  0.00     0.012 A
HETATM   19  CBA KCA R 501      90.687 132.179 116.375  1.00  0.00     0.001 A
HETATM   20  CBB KCA R 501      91.924 131.618 116.121  1.00  0.00     0.002 A
HETATM   21  CBC KCA R 501      92.567 130.957 117.149  1.00  0.00     0.022 A
HETATM   22  CAX KCA R 501      91.971 130.859 118.333  1.00  0.00     0.054 A
BRANCH  17  23
HETATM   23  CAP KCA R 501      93.719 129.635 119.481  1.00  0.00     0.093 C
BRANCH  23  24
HETATM   24  CAQ KCA R 501      94.686 130.566 119.862  1.00  0.00    -0.012 A
HETATM   25  CAR KCA R 501      94.540 131.941 119.852  1.00  0.00     0.012 A
HETATM   26  CAS KCA R 501      95.552 132.786 120.241  1.00  0.00     0.039 A
HETATM   27  CAT KCA R 501      96.744 132.236 120.668  1.00  0.00     0.123 A
HETATM   28  CAV KCA R 501      96.937 130.879 120.705  1.00  0.00     0.039 A
HETATM   29  FAU KCA R 501      97.563 132.898 120.989  1.00  0.00    -0.205 F
HETATM   30  CAW KCA R 501      95.879 130.123 120.289  1.00  0.00     0.012 A
ENDBRANCH  23  24
ENDBRANCH  17  23
ENDBRANCH   3  14
TORSDOF 7
