MODEL        1
REMARK THIS MODEL IS IDENTICAL TO THE INPUT LIGAND AND NOT FROM DOCKING
REMARK 921   NORMALIZED FREE ENERGY PREDICTED BY IDOCK:   -7.92 KCAL/MOL
REMARK 922        TOTAL FREE ENERGY PREDICTED BY IDOCK:  -10.57 KCAL/MOL
REMARK 923 INTER-LIGAND FREE ENERGY PREDICTED BY IDOCK:  -10.23 KCAL/MOL
REMARK 924 INTRA-LIGAND FREE ENERGY PREDICTED BY IDOCK:   -0.34 KCAL/MOL
REMARK 927      BINDING AFFINITY PREDICTED BY RF-SCORE:    0.00 PKD
ROOT
HETATM    1  C1  ZMA A1202      -1.513  13.600  14.298  1.00  0.00    -0.394 A  
HETATM    2  C2  ZMA A1202      -1.207  14.924  14.557  1.00  0.00    -0.310 A  
HETATM    3  C3  ZMA A1202      -0.031  15.244  15.219  1.00  0.00    -0.225 A  
HETATM    4  O4  ZMA A1202       0.250  16.556  15.481  1.00  0.00    -0.186 OA 
HETATM    5  C5  ZMA A1202       0.825  14.226  15.624  1.00  0.00    -0.442 A  
HETATM    6  H4  ZMA A1202       1.056  16.775  15.934  1.00  0.00     0.000 HD 
HETATM    7  C6  ZMA A1202       0.487  12.905  15.392  1.00  0.00    -0.564 A  
HETATM    8  C7  ZMA A1202      -0.684  12.570  14.731  1.00  0.00    -0.386 A  
ENDROOT
BRANCH   8   9
HETATM    9  C8  ZMA A1202      -1.154  11.136  14.655  1.00  0.00    -0.511 C  
BRANCH   9  10
HETATM   10  C9  ZMA A1202      -2.119  10.907  15.824  1.00  0.00    -0.351 C  
BRANCH  10  11
HETATM   11  N10 ZMA A1202      -2.477   9.519  16.003  1.00  0.00    -0.313 NA 
HETATM   12  H10 ZMA A1202      -3.362   9.173  15.632  1.00  0.00     0.000 HD 
BRANCH  11  13
HETATM   13  C11 ZMA A1202      -1.648   8.672  16.659  1.00  0.00    -0.241 C  
HETATM   14  N12 ZMA A1202      -2.084   7.393  16.837  1.00  0.00    -0.449 NA 
HETATM   15  C18 ZMA A1202      -1.272   6.579  17.505  1.00  0.00    -0.455 A  
HETATM   16  N16 ZMA A1202      -0.014   6.985  17.942  1.00  0.00    -0.291 NA 
HETATM   17  N17 ZMA A1202       0.634   5.939  18.527  1.00  0.00    -0.736 NA 
HETATM   18  C14 ZMA A1202       0.365   8.275  17.762  1.00  0.00    -0.333 C  
HETATM   19  C20 ZMA A1202      -0.265   4.960  18.447  1.00  0.00    -0.471 A  
HETATM   20  N13 ZMA A1202      -0.475   9.129  17.126  1.00  0.00    -0.430 NA 
HETATM   21  N15 ZMA A1202       1.580   8.703  18.112  1.00  0.00    -0.757 NA 
HETATM   22 2H15 ZMA A1202       1.872   9.658  17.904  1.00  0.00     0.000 HD 
HETATM   23 1H15 ZMA A1202       2.212   8.061  18.590  1.00  0.00     0.000 HD 
HETATM   24  N19 ZMA A1202      -1.468   5.292  17.831  1.00  0.00    -0.429 NA 
BRANCH  19  25
HETATM   25  C21 ZMA A1202       0.022   3.632  18.969  1.00  0.00    -0.311 A  
HETATM   26  C22 ZMA A1202      -0.683   2.512  19.158  1.00  0.00    -0.616 A  
HETATM   27  C23 ZMA A1202       0.272   1.505  19.671  1.00  0.00    -0.528 A  
HETATM   28  C24 ZMA A1202       1.439   2.110  19.719  1.00  0.00    -0.099 A  
HETATM   29  O25 ZMA A1202       1.333   3.419  19.294  1.00  0.00    -0.404 OA 
ENDBRANCH  19  25
ENDBRANCH  11  13
ENDBRANCH  10  11
ENDBRANCH   9  10
ENDBRANCH   8   9
TORSDOF 5
ENDMDL
