MODEL        1
REMARK THIS MODEL IS IDENTICAL TO THE INPUT LIGAND AND NOT FROM DOCKING
REMARK 921   NORMALIZED FREE ENERGY PREDICTED BY IDOCK:   -8.61 KCAL/MOL
REMARK 922        TOTAL FREE ENERGY PREDICTED BY IDOCK:  -11.08 KCAL/MOL
REMARK 923 INTER-LIGAND FREE ENERGY PREDICTED BY IDOCK:  -11.12 KCAL/MOL
REMARK 924 INTRA-LIGAND FREE ENERGY PREDICTED BY IDOCK:    0.04 KCAL/MOL
REMARK 927      BINDING AFFINITY PREDICTED BY RF-SCORE:    0.00 PKD
ROOT
HETATM    1  C13 9XW A1201      20.672 174.932  18.259  1.00  0.00    -0.460 A  
HETATM    2  C28 9XW A1201      19.470 175.372  18.816  1.00  0.00    -0.417 A  
HETATM    3  C03 9XW A1201      19.321 176.726  19.248  1.00  0.00    -0.287 A  
HETATM    4  N27 9XW A1201      18.463 174.464  18.925  1.00  0.00    -0.660 NA 
HETATM    5  C06 9XW A1201      21.747 175.829  18.123  1.00  0.00    -0.369 A  
HETATM    6  C15 9XW A1201      18.749 173.239  18.482  1.00  0.00    -0.304 A  
HETATM    7  C04 9XW A1201      20.359 177.599  19.120  1.00  0.00    -0.588 A  
HETATM    8  C05 9XW A1201      21.593 177.156  18.551  1.00  0.00    -0.592 A  
HETATM    9  S14 9XW A1201      20.397 173.269  17.890  1.00  0.00     0.022 SA 
ENDROOT
BRANCH   3  10
HETATM   10  O02 9XW A1201      18.074 177.159  19.818  1.00  0.00    -0.529 OA 
HETATM   11  C01 9XW A1201      17.700 178.511  19.429  1.00  0.00    -0.588 C  
ENDBRANCH   3  10
BRANCH   6  12
HETATM   12  N16 9XW A1201      17.845 172.121  18.495  1.00  0.00    -0.500 N  
HETATM   13  H16 9XW A1201      16.879 172.281  18.782  1.00  0.00     0.000 HD 
BRANCH  12  14
HETATM   14  C17 9XW A1201      18.238 170.780  18.121  1.00  0.00    -0.339 C  
HETATM   15  O18 9XW A1201      19.374 170.506  17.756  1.00  0.00    -0.301 OA 
BRANCH  14  16
HETATM   16  N19 9XW A1201      17.212 169.722  18.192  1.00  0.00    -0.304 N  
HETATM   17  H24 9XW A1201      13.666 167.579  17.892  1.00  0.00     0.000 HD 
HETATM   18  C26 9XW A1201      15.834 169.994  18.607  1.00  0.00    -0.265 C  
HETATM   19  C20 9XW A1201      17.453 168.349  17.826  1.00  0.00    -0.343 C  
HETATM   20  C21 9XW A1201      16.578 168.031  16.619  1.00  0.00    -0.268 C  
HETATM   21  C23 9XW A1201      14.378 168.297  15.534  1.00  0.00    -0.581 C  
HETATM   22  C22 9XW A1201      15.127 168.353  16.859  1.00  0.00    -0.287 C  
HETATM   23  C25 9XW A1201      14.905 169.717  17.450  1.00  0.00    -0.356 C  
HETATM   24  O24 9XW A1201      14.582 167.376  17.741  1.00  0.00    -0.556 OA 
ENDBRANCH  14  16
ENDBRANCH  12  14
ENDBRANCH   6  12
BRANCH   5  25
HETATM   25  N07 9XW A1201      23.009 175.406  17.549  1.00  0.00    -0.310 NA 
HETATM   26  C09 9XW A1201      25.440 175.194  17.726  1.00  0.00    -0.425 C  
HETATM   27  C11 9XW A1201      24.383 174.814  15.630  1.00  0.00    -0.436 C  
HETATM   28  C08 9XW A1201      24.112 175.107  18.414  1.00  0.00    -0.312 C  
HETATM   29  C12 9XW A1201      23.043 174.725  16.310  1.00  0.00    -0.336 C  
HETATM   30  O10 9XW A1201      25.453 174.428  16.514  1.00  0.00    -0.434 OA 
ENDBRANCH   5  25
TORSDOF 5
ENDMDL
