MODEL        1
REMARK THIS MODEL IS IDENTICAL TO THE INPUT LIGAND AND NOT FROM DOCKING
REMARK 921   NORMALIZED FREE ENERGY PREDICTED BY IDOCK:   -8.11 KCAL/MOL
REMARK 922        TOTAL FREE ENERGY PREDICTED BY IDOCK:  -10.80 KCAL/MOL
REMARK 923 INTER-LIGAND FREE ENERGY PREDICTED BY IDOCK:  -10.47 KCAL/MOL
REMARK 924 INTRA-LIGAND FREE ENERGY PREDICTED BY IDOCK:   -0.33 KCAL/MOL
REMARK 927      BINDING AFFINITY PREDICTED BY RF-SCORE:    0.00 PKD
ROOT
HETATM    1  C1  ZMA A1201      21.936 167.102  15.154  1.00  0.00    -0.400 A  
HETATM    2  C2  ZMA A1201      21.717 165.734  15.262  1.00  0.00    -0.331 A  
HETATM    3  C3  ZMA A1201      20.509 165.264  15.764  1.00  0.00    -0.256 A  
HETATM    4  O4  ZMA A1201      20.296 163.923  15.869  1.00  0.00    -0.185 OA 
HETATM    5  C5  ZMA A1201      19.520 166.160  16.159  1.00  0.00    -0.378 A  
HETATM    6  C6  ZMA A1201      19.739 167.530  16.051  1.00  0.00    -0.500 A  
HETATM    7  H4  ZMA A1201      19.470 163.602  16.212  1.00  0.00     0.000 HD 
HETATM    8  C7  ZMA A1201      20.947 167.998  15.544  1.00  0.00    -0.354 A  
ENDROOT
BRANCH   8   9
HETATM    9  C8  ZMA A1201      21.205 169.482  15.436  1.00  0.00    -0.407 C  
BRANCH   9  10
HETATM   10  C9  ZMA A1201      22.138 169.849  16.588  1.00  0.00    -0.328 C  
BRANCH  10  11
HETATM   11  N10 ZMA A1201      22.477 171.260  16.640  1.00  0.00    -0.321 NA 
HETATM   12  H10 ZMA A1201      23.337 171.594  16.206  1.00  0.00     0.000 HD 
BRANCH  11  13
HETATM   13  C11 ZMA A1201      21.653 172.130  17.263  1.00  0.00    -0.296 C  
HETATM   14  N13 ZMA A1201      20.462 171.694  17.744  1.00  0.00    -0.405 NA 
HETATM   15  C14 ZMA A1201      19.617 172.542  18.371  1.00  0.00    -0.297 C  
HETATM   16  N16 ZMA A1201      19.981 173.816  18.508  1.00  0.00    -0.273 NA 
HETATM   17  N15 ZMA A1201      18.427 172.113  18.852  1.00  0.00    -0.890 NA 
HETATM   18  N17 ZMA A1201      19.221 174.801  19.127  1.00  0.00    -0.683 NA 
HETATM   19 2H15 ZMA A1201      18.164 171.134  18.740  1.00  0.00     0.000 HD 
HETATM   20 1H15 ZMA A1201      17.789 172.753  19.325  1.00  0.00     0.000 HD 
HETATM   21  C20 ZMA A1201      20.076 175.833  18.961  1.00  0.00    -0.431 A  
HETATM   22  N19 ZMA A1201      21.244 175.566  18.316  1.00  0.00    -0.377 NA 
HETATM   23  N12 ZMA A1201      22.014 173.428  17.407  1.00  0.00    -0.446 NA 
HETATM   24  C18 ZMA A1201      21.141 174.243  18.040  1.00  0.00    -0.445 A  
BRANCH  21  25
HETATM   25  C21 ZMA A1201      19.713 177.185  19.470  1.00  0.00    -0.347 A  
HETATM   26  C23 ZMA A1201      19.826 179.232  20.161  1.00  0.00    -0.566 A  
HETATM   27  C22 ZMA A1201      20.621 178.191  19.709  1.00  0.00    -0.625 A  
HETATM   28  C24 ZMA A1201      18.495 178.827  20.176  1.00  0.00    -0.359 A  
HETATM   29  O25 ZMA A1201      18.420 177.519  19.733  1.00  0.00    -0.574 OA 
ENDBRANCH  21  25
ENDBRANCH  11  13
ENDBRANCH  10  11
ENDBRANCH   9  10
ENDBRANCH   8   9
TORSDOF 5
ENDMDL
