REMARK  2 active torsions:
REMARK  status: ('A' for Active; 'I' for Inactive)
REMARK    1  A    between atoms: NAS_11  and  CBB_31
REMARK    2  A    between atoms: CBB_31  and  CBC_32
ROOT
HETATM    1  CAB EJ4 A1219      -6.217 -65.863  71.510  1.00  0.00     0.103 A
HETATM    2  OAA EJ4 A1219      -6.615 -64.677  70.925  1.00  0.00    -0.357 OA
HETATM    3  CAC EJ4 A1219      -6.857 -67.021  71.104  1.00  0.00     0.111 A
HETATM    4  HAA EJ4 A1219      -6.176 -63.882  71.204  1.00  0.00     0.217 HD
HETATM    5  CAW EJ4 A1219      -6.449 -68.213  71.669  1.00  0.00     0.000 A
HETATM    6  CAV EJ4 A1219      -7.199 -69.351  71.161  1.00  0.00     0.062 C
HETATM    7  CAP EJ4 A1219      -6.231 -70.597  71.088  1.00  0.00     0.098 C
HETATM    8  CAR EJ4 A1219      -5.738 -70.835  72.504  1.00  0.00     0.094 C
HETATM    9  OAQ EJ4 A1219      -6.965 -71.850  70.661  1.00  0.00    -0.386 OA
HETATM   10  CAO EJ4 A1219      -5.089 -70.341  70.088  1.00  0.00     0.074 C
HETATM   11  NAS EJ4 A1219      -6.890 -71.346  73.355  1.00  0.00    -0.296 NA
HETATM   12  HAQ EJ4 A1219      -7.670 -72.008  71.278  1.00  0.00     0.210 HD
HETATM   13  CBA EJ4 A1219      -5.136 -69.639  73.082  1.00  0.00     0.057 C
HETATM   14  CAG EJ4 A1219      -5.520 -69.667  68.895  1.00  0.00    -0.019 A
HETATM   15  CAX EJ4 A1219      -5.466 -68.345  72.585  1.00  0.00    -0.039 A
HETATM   16  CAT EJ4 A1219      -7.876 -70.215  73.465  1.00  0.00     0.086 C
HETATM   17  OAD EJ4 A1219      -7.844 -67.260  70.154  1.00  0.00    -0.332 OA
HETATM   18  CAH EJ4 A1219      -4.856 -69.492  67.725  1.00  0.00    -0.002 A
HETATM   19  CAU EJ4 A1219      -8.334 -69.694  72.147  1.00  0.00     0.033 C
HETATM   20  CAE EJ4 A1219      -7.716 -68.849  69.818  1.00  0.00     0.180 C
HETATM   21  CAI EJ4 A1219      -3.616 -69.870  67.311  1.00  0.00     0.010 A
HETATM   22  CAY EJ4 A1219      -4.812 -67.172  73.007  1.00  0.00     0.006 A
HETATM   23  CAZ EJ4 A1219      -5.181 -65.918  72.460  1.00  0.00     0.035 A
HETATM   24  HAN EJ4 A1219      -7.548 -67.997  67.134  1.00  0.00     0.133 HD
HETATM   25  CAJ EJ4 A1219      -3.153 -69.570  66.021  1.00  0.00     0.001 A
HETATM   26  CAK EJ4 A1219      -3.978 -68.800  65.188  1.00  0.00     0.002 A
HETATM   27  CAF EJ4 A1219      -6.752 -69.027  68.774  1.00  0.00     0.031 A
HETATM   28  CAL EJ4 A1219      -5.235 -68.411  65.657  1.00  0.00     0.020 A
HETATM   29  CAM EJ4 A1219      -5.631 -68.766  66.903  1.00  0.00     0.027 A
HETATM   30  NAN EJ4 A1219      -6.766 -68.514  67.536  1.00  0.00    -0.259 NA
ENDROOT
BRANCH  11  31
HETATM   31  CBB EJ4 A1219      -6.595 -71.876  74.700  1.00  0.00     0.088 C
BRANCH  31  32
HETATM   32  CBC EJ4 A1219      -5.553 -73.017  74.613  1.00  0.00     0.003 C
HETATM   33  CBE EJ4 A1219      -4.899 -73.452  75.953  1.00  0.00     0.005 C
HETATM   34  CBD EJ4 A1219      -4.070 -72.716  74.922  1.00  0.00     0.005 C
ENDBRANCH  31  32
ENDBRANCH  11  31
TORSDOF 2
