MODEL        1
REMARK THIS MODEL IS IDENTICAL TO THE INPUT LIGAND AND NOT FROM DOCKING
REMARK 921   NORMALIZED FREE ENERGY PREDICTED BY IDOCK:  -11.47 KCAL/MOL
REMARK 922        TOTAL FREE ENERGY PREDICTED BY IDOCK:  -14.00 KCAL/MOL
REMARK 923 INTER-LIGAND FREE ENERGY PREDICTED BY IDOCK:  -13.48 KCAL/MOL
REMARK 924 INTRA-LIGAND FREE ENERGY PREDICTED BY IDOCK:   -0.52 KCAL/MOL
REMARK 927      BINDING AFFINITY PREDICTED BY RF-SCORE:    0.00 PKD
ROOT
HETATM    1  C1  2U8 A4005     -24.942  -6.788  40.839  1.00  0.00    -0.713 A  
HETATM    2  C3  2U8 A4005     -25.150  -6.538  39.467  1.00  0.00    -0.670 A  
HETATM    3  C5  2U8 A4005     -25.556  -9.119  40.514  1.00  0.00    -0.844 A  
HETATM    4  C7  2U8 A4005     -25.569  -7.587  38.612  1.00  0.00    -0.754 A  
HETATM    5  C2  2U8 A4005     -25.145  -8.081  41.352  1.00  0.00    -0.773 A  
HETATM    6  C6  2U8 A4005     -25.770  -8.881  39.145  1.00  0.00    -0.864 A  
HETATM    7  C8  2U8 A4005     -25.793  -7.315  37.147  1.00  0.00    -0.808 C  
ENDROOT
BRANCH   1   8
HETATM    8  C4  2U8 A4005     -24.502  -5.688  41.696  1.00  0.00    -0.262 C  
HETATM    9  C9  2U8 A4005     -24.194  -4.764  42.440  1.00  0.00    -0.191 C  
BRANCH   9  10
HETATM   10  C10 2U8 A4005     -23.827  -3.601  43.276  1.00  0.00    -0.409 C  
HETATM   11  O1  2U8 A4005     -24.983  -2.980  43.763  1.00  0.00    -1.092 OA 
HETATM   12  C11 2U8 A4005     -23.077  -2.506  42.466  1.00  0.00    -0.477 C  
HETATM   13  C12 2U8 A4005     -21.692  -2.942  41.942  1.00  0.00    -0.655 C  
HETATM   14  H1  2U8 A4005     -24.747  -2.233  44.300  1.00  0.00     0.000 HD 
HETATM   15  C13 2U8 A4005     -20.769  -3.554  43.001  1.00  0.00    -0.678 C  
HETATM   16  C14 2U8 A4005     -21.402  -4.344  44.173  1.00  0.00    -0.473 C  
HETATM   17  C15 2U8 A4005     -22.923  -4.161  44.413  1.00  0.00    -0.505 C  
HETATM   18  C16 2U8 A4005     -23.006  -3.423  45.759  1.00  0.00    -0.780 C  
HETATM   19  C17 2U8 A4005     -21.670  -3.680  46.464  1.00  0.00    -0.529 C  
HETATM   20  N1  2U8 A4005     -20.796  -4.351  45.504  1.00  0.00    -0.369 N  
HETATM   21  C18 2U8 A4005     -19.561  -4.900  45.877  1.00  0.00    -0.420 C  
HETATM   22  O2  2U8 A4005     -18.766  -5.390  45.075  1.00  0.00    -0.274 OA 
BRANCH  21  23
HETATM   23  O3  2U8 A4005     -19.514  -5.179  47.189  1.00  0.00    -0.410 OA 
HETATM   24  C19 2U8 A4005     -18.397  -5.879  47.715  1.00  0.00    -0.536 C  
ENDBRANCH  21  23
ENDBRANCH   9  10
ENDBRANCH   1   8
TORSDOF 3
ENDMDL
