MODEL        1
REMARK THIS MODEL IS IDENTICAL TO THE INPUT LIGAND AND NOT FROM DOCKING
REMARK 921   NORMALIZED FREE ENERGY PREDICTED BY IDOCK:  -10.24 KCAL/MOL
REMARK 922        TOTAL FREE ENERGY PREDICTED BY IDOCK:  -12.97 KCAL/MOL
REMARK 923 INTER-LIGAND FREE ENERGY PREDICTED BY IDOCK:  -13.23 KCAL/MOL
REMARK 924 INTRA-LIGAND FREE ENERGY PREDICTED BY IDOCK:    0.26 KCAL/MOL
REMARK 927      BINDING AFFINITY PREDICTED BY RF-SCORE:    0.00 PKD
ROOT
HETATM    1  C1  FM9 A1901      26.138 -20.232  30.049  1.00  0.00    -0.431 A  
HETATM    2  N1  FM9 A1901      25.190 -20.125  29.120  1.00  0.00    -0.378 NA 
HETATM    3  C4  FM9 A1901      24.007 -20.855  29.294  1.00  0.00    -0.399 A  
HETATM    4  C3  FM9 A1901      23.819 -21.746  30.448  1.00  0.00    -0.729 A  
HETATM    5  C2  FM9 A1901      24.880 -21.834  31.355  1.00  0.00    -0.460 A  
HETATM    6  N2  FM9 A1901      26.009 -21.040  31.170  1.00  0.00    -0.391 NA 
ENDROOT
BRANCH   3   7
HETATM    7  N5  FM9 A1901      22.953 -20.780  28.301  1.00  0.00    -0.589 NA 
HETATM    8  H5  FM9 A1901      22.203 -21.471  28.329  1.00  0.00     0.000 HD 
BRANCH   7   9
HETATM    9  C16 FM9 A1901      22.924 -19.756  27.264  1.00  0.00    -0.421 C  
HETATM   10  C17 FM9 A1901      21.507 -19.369  26.998  1.00  0.00    -0.778 C  
HETATM   11  C18 FM9 A1901      23.546 -20.288  26.020  1.00  0.00    -0.414 C  
ENDBRANCH   7   9
ENDBRANCH   3   7
BRANCH   5  12
HETATM   12  C5  FM9 A1901      24.790 -22.628  32.642  1.00  0.00    -0.260 A  
HETATM   13  N3  FM9 A1901      23.610 -23.107  33.232  1.00  0.00    -0.254 NA 
HETATM   14  C7  FM9 A1901      23.866 -23.683  34.432  1.00  0.00    -0.474 A  
HETATM   15  C6  FM9 A1901      25.929 -22.784  33.449  1.00  0.00    -0.430 A  
HETATM   16  S1  FM9 A1901      25.524 -23.597  34.937  1.00  0.00    -0.511 SA 
BRANCH  14  17
HETATM   17  N4  FM9 A1901      22.900 -24.259  35.349  1.00  0.00    -0.426 N  
HETATM   18  C9  FM9 A1901      23.388 -25.034  36.410  1.00  0.00    -0.125 C  
HETATM   19  C8  FM9 A1901      21.476 -23.966  35.250  1.00  0.00    -0.459 C  
HETATM   20  O1  FM9 A1901      21.045 -23.268  34.357  1.00  0.00    -0.470 OA 
BRANCH  19  21
HETATM   21  C10 FM9 A1901      20.505 -24.521  36.289  1.00  0.00    -0.598 A  
HETATM   22  C11 FM9 A1901      20.661 -24.220  37.614  1.00  0.00    -0.527 A  
HETATM   23  C12 FM9 A1901      19.660 -24.668  38.600  1.00  0.00    -0.591 A  
HETATM   24  C13 FM9 A1901      18.567 -25.381  38.152  1.00  0.00    -0.586 A  
HETATM   25  F1  FM9 A1901      17.662 -25.819  39.009  1.00  0.00    -0.712 F  
HETATM   26  C14 FM9 A1901      18.386 -25.682  36.720  1.00  0.00    -0.919 A  
HETATM   27  C15 FM9 A1901      19.303 -25.288  35.818  1.00  0.00    -0.894 A  
ENDBRANCH  19  21
ENDBRANCH  14  17
ENDBRANCH   5  12
TORSDOF 5
ENDMDL
