MODEL        1
REMARK THIS MODEL IS IDENTICAL TO THE INPUT LIGAND AND NOT FROM DOCKING
REMARK 921   NORMALIZED FREE ENERGY PREDICTED BY IDOCK:   -7.91 KCAL/MOL
REMARK 922        TOTAL FREE ENERGY PREDICTED BY IDOCK:  -11.51 KCAL/MOL
REMARK 923 INTER-LIGAND FREE ENERGY PREDICTED BY IDOCK:  -11.14 KCAL/MOL
REMARK 924 INTRA-LIGAND FREE ENERGY PREDICTED BY IDOCK:   -0.37 KCAL/MOL
REMARK 927      BINDING AFFINITY PREDICTED BY RF-SCORE:    0.00 PKD
ROOT
HETATM    1  C10 6DX A2401     -21.055  14.806  14.466  1.00  0.00    -0.274 C  
HETATM    2  C11 6DX A2401     -20.304  15.856  15.285  1.00  0.00    -0.214 C  
HETATM    3  N12 6DX A2401     -18.960  15.573  15.312  1.00  0.00    -0.217 NA 
HETATM    4  C13 6DX A2401     -18.713  14.334  15.852  1.00  0.00    -0.377 C  
HETATM    5  N09 6DX A2401     -20.814  13.503  14.893  1.00  0.00    -0.266 NA 
HETATM    6  C14 6DX A2401     -19.473  13.217  15.118  1.00  0.00    -0.388 C  
ENDROOT
BRANCH   3   7
HETATM    7  C15 6DX A2401     -18.101  16.101  14.242  1.00  0.00    -0.198 A  
HETATM    8  C19 6DX A2401     -17.015  17.966  13.174  1.00  0.00    -0.152 A  
HETATM    9  C20 6DX A2401     -17.827  17.459  14.188  1.00  0.00    -0.159 A  
HETATM   10  C18 6DX A2401     -16.480  17.115  12.217  1.00  0.00    -0.204 A  
HETATM   11  C16 6DX A2401     -17.562  15.250  13.278  1.00  0.00    -0.403 A  
HETATM   12  C17 6DX A2401     -16.753  15.755  12.267  1.00  0.00    -0.296 A  
ENDBRANCH   3   7
BRANCH   5  13
HETATM   13  C08 6DX A2401     -21.302  12.704  14.031  1.00  0.00    -0.376 C  
BRANCH  13  14
HETATM   14  C07 6DX A2401     -21.304  11.239  14.539  1.00  0.00    -0.488 C  
BRANCH  14  15
HETATM   15  C06 6DX A2401     -22.214  11.049  15.767  1.00  0.00    -0.336 C  
BRANCH  15  16
HETATM   16  N05 6DX A2401     -22.538   9.642  15.925  1.00  0.00    -0.347 NA 
HETATM   17  H05 6DX A2401     -23.416   9.274  15.559  1.00  0.00     0.000 HD 
BRANCH  16  18
HETATM   18  C04 6DX A2401     -21.624   8.780  16.592  1.00  0.00    -0.274 C  
HETATM   19  N03 6DX A2401     -20.405   9.245  17.000  1.00  0.00    -0.439 NA 
HETATM   20  C02 6DX A2401     -19.538   8.420  17.630  1.00  0.00    -0.304 C  
HETATM   21  N01 6DX A2401     -18.259   8.897  18.059  1.00  0.00    -0.669 NA 
HETATM   22  N26 6DX A2401     -19.888   7.112  17.857  1.00  0.00    -0.279 NA 
HETATM   23  C22 6DX A2401     -21.076   6.664  17.458  1.00  0.00    -0.474 A  
HETATM   24 2H01 6DX A2401     -18.405   9.716  18.649  1.00  0.00     0.000 HD 
HETATM   25 1H01 6DX A2401     -17.605   8.275  18.534  1.00  0.00     0.000 HD 
HETATM   26  N23 6DX A2401     -21.169   5.330  17.812  1.00  0.00    -0.417 NA 
HETATM   27  N21 6DX A2401     -21.965   7.511  16.810  1.00  0.00    -0.442 NA 
HETATM   28  C24 6DX A2401     -20.015   4.993  18.432  1.00  0.00    -0.417 A  
HETATM   29  N25 6DX A2401     -19.208   6.086  18.463  1.00  0.00    -0.688 NA 
BRANCH  28  30
HETATM   30  C27 6DX A2401     -19.677   3.594  18.978  1.00  0.00    -0.277 A  
HETATM   31  C28 6DX A2401     -20.587   2.558  19.226  1.00  0.00    -0.643 A  
HETATM   32  C29 6DX A2401     -19.843   1.461  19.697  1.00  0.00    -0.419 A  
HETATM   33  C30 6DX A2401     -18.503   1.840  19.723  1.00  0.00    -0.195 A  
HETATM   34  O31 6DX A2401     -18.429   3.137  19.277  1.00  0.00    -0.511 OA 
ENDBRANCH  28  30
ENDBRANCH  16  18
ENDBRANCH  15  16
ENDBRANCH  14  15
ENDBRANCH  13  14
ENDBRANCH   5  13
TORSDOF 7
ENDMDL
