MODEL        1
REMARK THIS MODEL IS IDENTICAL TO THE INPUT LIGAND AND NOT FROM DOCKING
REMARK 921   NORMALIZED FREE ENERGY PREDICTED BY IDOCK:  -10.01 KCAL/MOL
REMARK 922        TOTAL FREE ENERGY PREDICTED BY IDOCK:  -12.00 KCAL/MOL
REMARK 923 INTER-LIGAND FREE ENERGY PREDICTED BY IDOCK:  -11.76 KCAL/MOL
REMARK 924 INTRA-LIGAND FREE ENERGY PREDICTED BY IDOCK:   -0.24 KCAL/MOL
REMARK 927      BINDING AFFINITY PREDICTED BY RF-SCORE:    0.00 PKD
ROOT
HETATM    1  C1  D8B A4009     -24.830  -8.570  41.622  1.00  0.00    -0.883 A  
HETATM    2  C2  D8B A4009     -24.639  -7.212  41.301  1.00  0.00    -0.591 A  
HETATM    3  C4  D8B A4009     -25.403  -8.933  39.298  1.00  0.00    -0.811 A  
HETATM    4  N1  D8B A4009     -24.813  -6.720  40.057  1.00  0.00    -0.779 NA 
HETATM    5  C6  D8B A4009     -25.367  -6.948  37.707  1.00  0.00    -0.860 C  
HETATM    6  C3  D8B A4009     -25.187  -7.560  39.078  1.00  0.00    -0.563 A  
HETATM    7  C5  D8B A4009     -25.220  -9.447  40.595  1.00  0.00    -0.778 A  
ENDROOT
BRANCH   2   8
HETATM    8  C7  D8B A4009     -24.236  -6.268  42.327  1.00  0.00    -0.692 C  
HETATM    9  C8  D8B A4009     -23.888  -5.453  43.163  1.00  0.00    -0.737 C  
BRANCH   9  10
HETATM   10  C9  D8B A4009     -23.463  -4.481  44.151  1.00  0.00    -0.578 A  
HETATM   11  C14 D8B A4009     -24.061  -3.206  44.178  1.00  0.00    -0.787 A  
HETATM   12  C13 D8B A4009     -23.647  -2.266  45.140  1.00  0.00    -0.524 A  
HETATM   13  C12 D8B A4009     -22.637  -2.593  46.069  1.00  0.00    -0.967 A  
HETATM   14  C10 D8B A4009     -22.450  -4.809  45.078  1.00  0.00    -0.727 A  
HETATM   15  C11 D8B A4009     -22.036  -3.866  46.040  1.00  0.00    -0.734 A  
BRANCH  12  16
HETATM   16  O1  D8B A4009     -24.220  -1.033  45.176  1.00  0.00    -0.241 OA 
HETATM   17  C15 D8B A4009     -24.309  -0.502  43.780  1.00  0.00    -0.512 C  
ENDBRANCH  12  16
ENDBRANCH   9  10
ENDBRANCH   2   8
TORSDOF 3
ENDMDL
