REMARK  8 active torsions:
REMARK  status: ('A' for Active; 'I' for Inactive)
REMARK    1  A    between atoms: C2_2  and  N1_3
REMARK    2  A    between atoms: C2_2  and  C3_21
REMARK    3  A    between atoms: C3_21  and  C4_22
REMARK    4  A    between atoms: N1_3  and  C11_5
REMARK    5  A    between atoms: C11_5  and  C12_6
REMARK    6  A    between atoms: C12_6  and  C13_9
REMARK    7  A    between atoms: C7_27  and  O1_28
REMARK    8  A    between atoms: C15_13  and  N2_17
ROOT
HETATM    1  C1  H98 A 501     -43.249  29.913 -10.728  1.00  0.00     0.024 C
HETATM    2  C2  H98 A 501     -42.788  28.454 -10.548  1.00  0.00     0.055 C
ENDROOT
BRANCH   2   3
HETATM    3  N1  H98 A 501     -41.438  28.231 -11.118  1.00  0.00    -0.310 NA
HETATM    4  H1  H98 A 501     -40.748  28.799 -10.626  1.00  0.00     0.122 HD
BRANCH   3   5
HETATM    5  C11 H98 A 501     -41.338  28.451 -12.565  1.00  0.00     0.117 C
BRANCH   5   6
HETATM    6  C12 H98 A 501     -40.185  27.688 -13.214  1.00  0.00     0.158 C
HETATM    7  H4  H98 A 501     -38.278  27.492 -12.891  1.00  0.00     0.210 HD
HETATM    8  O4  H98 A 501     -38.995  27.967 -12.487  1.00  0.00    -0.386 OA
BRANCH   6   9
HETATM    9  C13 H98 A 501     -40.134  28.038 -14.698  1.00  0.00    -0.016 A
HETATM   10  C14 H98 A 501     -41.177  27.658 -15.543  1.00  0.00     0.028 A
HETATM   11  H2  H98 A 501     -39.292  29.376 -19.127  1.00  0.00     0.217 HD
HETATM   12  C18 H98 A 501     -39.059  28.729 -15.245  1.00  0.00     0.009 A
HETATM   13  C15 H98 A 501     -41.141  27.962 -16.902  1.00  0.00     0.052 A
HETATM   14  C16 H98 A 501     -40.041  28.642 -17.438  1.00  0.00     0.091 A
HETATM   15  C17 H98 A 501     -39.004  29.029 -16.592  1.00  0.00     0.034 A
HETATM   16  O2  H98 A 501     -40.039  28.915 -18.763  1.00  0.00    -0.358 OA
BRANCH  13  17
HETATM   17  N2  H98 A 501     -42.166  27.617 -17.811  1.00  0.00    -0.229 N
HETATM   18  H2  H98 A 501     -42.077  28.012 -18.747  1.00  0.00     0.136 HD
HETATM   19  C19 H98 A 501     -43.233  26.846 -17.611  1.00  0.00     0.313 C
HETATM   20  O3  H98 A 501     -44.289  26.945 -18.218  1.00  0.00    -0.283 OA
ENDBRANCH  13  17
ENDBRANCH   6   9
ENDBRANCH   5   6
ENDBRANCH   3   5
ENDBRANCH   2   3
BRANCH   2  21
HETATM   21  C3  H98 A 501     -42.825  28.007  -9.071  1.00  0.00     0.053 C
BRANCH  21  22
HETATM   22  C4  H98 A 501     -44.110  27.310  -8.675  1.00  0.00    -0.046 A
HETATM   23  C5  H98 A 501     -44.307  25.961  -8.961  1.00  0.00     0.006 A
HETATM   24  C6  H98 A 501     -45.476  25.306  -8.605  1.00  0.00     0.033 A
HETATM   25  C9  H98 A 501     -45.122  27.994  -8.012  1.00  0.00     0.006 A
HETATM   26  C8  H98 A 501     -46.299  27.356  -7.643  1.00  0.00     0.033 A
HETATM   27  C7  H98 A 501     -46.485  26.008  -7.948  1.00  0.00     0.076 A
BRANCH  27  28
HETATM   28  O1  H98 A 501     -47.671  25.413  -7.591  1.00  0.00    -0.348 OA
HETATM   29  C10 H98 A 501     -48.353  24.563  -8.519  1.00  0.00     0.202 C
ENDBRANCH  27  28
ENDBRANCH  21  22
ENDBRANCH   2  21
TORSDOF 8
