REMARK  5 active torsions:
REMARK  status: ('A' for Active; 'I' for Inactive)
REMARK    1  A    between atoms: C09_4  and  N08_13
REMARK    2  A    between atoms: N08_13  and  C07_15
REMARK    3  A    between atoms: C07_15  and  C06_16
REMARK    4  A    between atoms: C06_16  and  N05_17
REMARK    5  A    between atoms: C13_12  and  C19_24
ROOT
HETATM    1  N12 6DZ A2401     -20.935   5.383  17.750  1.00  0.00    -0.192 NA
HETATM    2  C11 6DZ A2401     -20.791   6.728  17.442  1.00  0.00     0.236 A
HETATM    3  N10 6DZ A2401     -21.599   7.617  16.762  1.00  0.00    -0.185 NA
HETATM    4  C09 6DZ A2401     -21.198   8.894  16.609  1.00  0.00     0.207 C
HETATM    5  N18 6DZ A2401     -20.017   9.304  17.118  1.00  0.00    -0.192 NA
HETATM    6 2H17 6DZ A2401     -18.158   9.672  18.916  1.00  0.00     0.126 HD
HETATM    7 1H17 6DZ A2401     -17.391   8.210  18.817  1.00  0.00     0.126 HD
HETATM    8  C16 6DZ A2401     -19.231   8.439  17.780  1.00  0.00     0.184 C
HETATM    9  N14 6DZ A2401     -19.023   6.073  18.564  1.00  0.00    -0.161 NA
HETATM   10  N15 6DZ A2401     -19.636   7.132  17.938  1.00  0.00    -0.072 NA
HETATM   11  N17 6DZ A2401     -17.988   8.867  18.314  1.00  0.00    -0.275 NA
HETATM   12  C13 6DZ A2401     -19.833   5.006  18.445  1.00  0.00     0.201 A
ENDROOT
BRANCH   4  13
HETATM   13  N08 6DZ A2401     -22.008   9.826  15.913  1.00  0.00    -0.255 NA
HETATM   14  H08 6DZ A2401     -22.800   9.512  15.353  1.00  0.00     0.131 HD
BRANCH  13  15
HETATM   15  C07 6DZ A2401     -21.691  11.209  16.013  1.00  0.00     0.105 C
BRANCH  15  16
HETATM   16  C06 6DZ A2401     -21.021  11.691  14.743  1.00  0.00     0.110 C
BRANCH  16  17
HETATM   17  N05 6DZ A2401     -20.688  12.921  14.850  1.00  0.00    -0.254 NA
HETATM   18  C24 6DZ A2401     -19.606  13.060  15.652  1.00  0.00     0.072 C
HETATM   19  C25 6DZ A2401     -19.191  14.512  15.775  1.00  0.00     0.071 C
HETATM   20  C04 6DZ A2401     -20.478  13.457  13.627  1.00  0.00     0.072 C
HETATM   21  C01 6DZ A2401     -18.875  16.374  14.743  1.00  0.00     0.115 C
HETATM   22  N02 6DZ A2401     -19.047  15.119  14.571  1.00  0.00    -0.258 NA
HETATM   23  C03 6DZ A2401     -20.092  14.919  13.730  1.00  0.00     0.071 C
ENDBRANCH  16  17
ENDBRANCH  15  16
ENDBRANCH  13  15
ENDBRANCH   4  13
BRANCH  12  24
HETATM   24  C19 6DZ A2401     -19.536   3.627  18.984  1.00  0.00     0.128 A
HETATM   25  C20 6DZ A2401     -20.451   2.612  19.217  1.00  0.00     0.039 A
HETATM   26  C21 6DZ A2401     -19.735   1.524  19.700  1.00  0.00     0.028 A
HETATM   27  C22 6DZ A2401     -18.399   1.889  19.753  1.00  0.00     0.136 A
HETATM   28  O23 6DZ A2401     -18.309   3.164  19.312  1.00  0.00    -0.313 OA
ENDBRANCH  12  24
TORSDOF 5
