REMARK  2 active torsions:
REMARK  status: ('A' for Active; 'I' for Inactive)
REMARK    1  A    between atoms: C02_4  and  O12_13
REMARK    2  A    between atoms: O12_13  and  C13_14
ROOT
HETATM    1  C10 3C0 A 501     186.162  24.462 525.611  1.00  0.00     0.174 C
HETATM    2  O11 3C0 A 501     185.766  23.592 524.544  1.00  0.00    -0.394 OA
HETATM    3  C03 3C0 A 501     185.563  25.850 525.373  1.00  0.00     0.140 C
HETATM    4  C02 3C0 A 501     184.031  25.774 525.378  1.00  0.00     0.272 C
HETATM    5  C04 3C0 A 501     185.997  26.749 526.346  1.00  0.00    -0.033 A
HETATM    6  H11 3C0 A 501     186.138  22.731 524.692  1.00  0.00     0.209 HD
HETATM    7  O01 3C0 A 501     183.435  24.859 525.945  1.00  0.00    -0.264 OA
HETATM    8  C09 3C0 A 501     185.922  26.421 527.695  1.00  0.00     0.004 A
HETATM    9  C07 3C0 A 501     186.862  28.564 528.267  1.00  0.00     0.000 A
HETATM   10  C08 3C0 A 501     186.356  27.328 528.656  1.00  0.00     0.000 A
HETATM   11  C05 3C0 A 501     186.502  27.984 525.959  1.00  0.00     0.004 A
HETATM   12  C06 3C0 A 501     186.935  28.891 526.918  1.00  0.00     0.000 A
ENDROOT
BRANCH   4  13
HETATM   13  O12 3C0 A 501     183.435  26.779 524.685  1.00  0.00    -0.311 OA
BRANCH  13  14
HETATM   14  C13 3C0 A 501     181.993  26.873 524.822  1.00  0.00     0.132 C
HETATM   15  C22 3C0 A 501     181.520  28.881 526.359  1.00  0.00     0.222 C
HETATM   16  C23 3C0 A 501     181.517  27.346 526.215  1.00  0.00     0.068 C
HETATM   17  C17 3C0 A 501     182.944  29.399 526.035  1.00  0.00     0.180 C
HETATM   18  C16 3C0 A 501     182.891  29.701 524.561  1.00  0.00     0.180 C
HETATM   19  C15 3C0 A 501     181.445  29.302 524.157  1.00  0.00     0.222 C
HETATM   20  O18 3C0 A 501     183.150  30.759 525.543  1.00  0.00    -0.364 OA
HETATM   21  C14 3C0 A 501     181.408  27.811 523.747  1.00  0.00     0.068 C
HETATM   22  N19 3C0 A 501     180.643  29.535 525.367  1.00  0.00    -0.044 N
HETATM   23  C20 3C0 A 501     180.373  30.961 525.640  1.00  0.00     0.267 C
HETATM   24  C21 3C0 A 501     179.294  28.953 525.264  1.00  0.00     0.267 C
ENDBRANCH  13  14
ENDBRANCH   4  13
TORSDOF 2
