MODEL        1
REMARK THIS MODEL IS IDENTICAL TO THE INPUT LIGAND AND NOT FROM DOCKING
REMARK 921   NORMALIZED FREE ENERGY PREDICTED BY IDOCK:  -10.55 KCAL/MOL
REMARK 922        TOTAL FREE ENERGY PREDICTED BY IDOCK:  -12.00 KCAL/MOL
REMARK 923 INTER-LIGAND FREE ENERGY PREDICTED BY IDOCK:  -11.78 KCAL/MOL
REMARK 924 INTRA-LIGAND FREE ENERGY PREDICTED BY IDOCK:   -0.22 KCAL/MOL
REMARK 927      BINDING AFFINITY PREDICTED BY RF-SCORE:    0.00 PKD
ROOT
HETATM    1  CAB EJ4 A 500      61.261  38.391  -9.305  1.00  0.00    -0.396 A  
HETATM    2  OAA EJ4 A 500      61.320  37.101  -9.740  1.00  0.00    -0.405 OA 
HETATM    3  CAC EJ4 A 500      62.139  39.252  -9.839  1.00  0.00    -0.354 A  
HETATM    4  HAA EJ4 A 500      60.698  36.491  -9.362  1.00  0.00     0.000 HD 
HETATM    5  CAW EJ4 A 500      61.899  40.494  -9.518  1.00  0.00    -0.370 A  
HETATM    6  CAX EJ4 A 500      61.216  40.991  -8.472  1.00  0.00    -0.477 A  
HETATM    7  CAY EJ4 A 500      60.335  40.124  -7.839  1.00  0.00    -0.388 A  
HETATM    8  CBA EJ4 A 500      61.355  42.426  -8.313  1.00  0.00    -0.354 C  
HETATM    9  CAZ EJ4 A 500      60.380  38.795  -8.288  1.00  0.00    -0.545 A  
HETATM   10  CAR EJ4 A 500      62.718  43.149  -8.761  1.00  0.00    -0.324 C  
HETATM   11  CAP EJ4 A 500      62.847  42.511 -10.148  1.00  0.00    -0.251 C  
HETATM   12  OAQ EJ4 A 500      63.927  43.119 -10.881  1.00  0.00    -0.229 OA 
HETATM   13  CAO EJ4 A 500      61.507  42.651 -10.911  1.00  0.00    -0.426 C  
HETATM   14  CAG EJ4 A 500      61.530  42.063 -12.157  1.00  0.00    -0.306 A  
HETATM   15  HAQ EJ4 A 500      64.749  43.033 -10.413  1.00  0.00     0.000 HD 
HETATM   16  CAF EJ4 A 500      62.280  40.944 -12.309  1.00  0.00    -0.149 A  
HETATM   17  CAE EJ4 A 500      63.322  40.553 -11.425  1.00  0.00    -0.179 C  
HETATM   18  NAN EJ4 A 500      62.055  40.539 -13.563  1.00  0.00    -0.180 NA 
HETATM   19  CAV EJ4 A 500      62.951  41.137 -10.112  1.00  0.00    -0.236 C  
HETATM   20  OAD EJ4 A 500      62.974  39.180 -10.953  1.00  0.00    -0.457 OA 
HETATM   21  HAN EJ4 A 500      62.563  39.795 -14.040  1.00  0.00     0.000 HD 
HETATM   22  CAM EJ4 A 500      61.065  41.256 -14.094  1.00  0.00    -0.191 A  
HETATM   23  CAH EJ4 A 500      60.705  42.174 -13.197  1.00  0.00    -0.294 A  
HETATM   24  CAU EJ4 A 500      64.180  40.665  -9.314  1.00  0.00    -0.425 C  
HETATM   25  CAT EJ4 A 500      64.009  41.198  -7.941  1.00  0.00    -0.210 C  
HETATM   26  CAI EJ4 A 500      59.725  43.045 -13.453  1.00  0.00    -0.424 A  
HETATM   27  CAJ EJ4 A 500      59.048  43.023 -14.664  1.00  0.00    -0.459 A  
HETATM   28  NAS EJ4 A 500      63.928  42.675  -8.023  1.00  0.00    -0.527 NA 
HETATM   29  CAK EJ4 A 500      59.424  42.068 -15.595  1.00  0.00    -0.342 A  
HETATM   30  CAL EJ4 A 500      60.452  41.185 -15.277  1.00  0.00    -0.236 A  
ENDROOT
BRANCH  28  31
HETATM   31  CBB EJ4 A 500      63.766  42.950  -6.574  1.00  0.00    -0.419 C  
BRANCH  31  32
HETATM   32  CBC EJ4 A 500      63.802  44.435  -6.083  1.00  0.00    -0.710 C  
HETATM   33  CBE EJ4 A 500      62.666  44.853  -5.149  1.00  0.00    -0.771 C  
HETATM   34  CBD EJ4 A 500      62.801  45.520  -6.512  1.00  0.00    -0.746 C  
ENDBRANCH  31  32
ENDBRANCH  28  31
TORSDOF 2
ENDMDL
