REMARK  5 active torsions:
REMARK  status: ('A' for Active; 'I' for Inactive)
REMARK    1  A    between atoms: C4_9  and  O1_14
REMARK    2  A    between atoms: O1_14  and  C9_15
REMARK    3  A    between atoms: C9_15  and  C10_16
REMARK    4  A    between atoms: C10_16  and  C11_19
REMARK    5  A    between atoms: C11_19  and  N2_20
ROOT
HETATM    1  N3  XTK A 501      25.211  52.119   9.997  1.00  0.00    -0.190 NA
HETATM    2  C16 XTK A 501      24.893  53.120  10.505  1.00  0.00     0.111 C
HETATM    3  C1  XTK A 501      24.536  54.295  11.033  1.00  0.00     0.099 A
HETATM    4  N1  XTK A 501      23.902  55.253  10.328  1.00  0.00    -0.249 NA
HETATM    5  C8  XTK A 501      23.669  56.297  11.158  1.00  0.00     0.033 A
HETATM    6  H1  XTK A 501      23.643  55.201   9.343  1.00  0.00     0.134 HD
HETATM    7  C3  XTK A 501      24.197  55.921  12.485  1.00  0.00     0.025 A
HETATM    8  C2  XTK A 501      24.752  54.611  12.363  1.00  0.00     0.043 A
HETATM    9  C4  XTK A 501      24.050  56.906  13.594  1.00  0.00     0.085 A
HETATM   10  C5  XTK A 501      23.429  58.144  13.349  1.00  0.00     0.034 A
HETATM   11  C7  XTK A 501      23.026  57.624  11.006  1.00  0.00    -0.032 A
HETATM   12  C6  XTK A 501      22.933  58.488  12.091  1.00  0.00     0.007 A
HETATM   13  C17 XTK A 501      22.474  58.006   9.670  1.00  0.00     0.045 C
ENDROOT
BRANCH   9  14
HETATM   14  O1  XTK A 501      24.545  56.565  14.825  1.00  0.00    -0.341 OA
BRANCH  14  15
HETATM   15  C9  XTK A 501      24.206  57.254  16.029  1.00  0.00     0.200 C
BRANCH  15  16
HETATM   16  C10 XTK A 501      24.384  56.340  17.224  1.00  0.00     0.154 C
HETATM   17  H2  XTK A 501      24.557  57.860  18.505  1.00  0.00     0.210 HD
HETATM   18  O2  XTK A 501      24.023  57.083  18.391  1.00  0.00    -0.388 OA
BRANCH  16  19
HETATM   19  C11 XTK A 501      23.523  55.088  17.041  1.00  0.00     0.115 C
BRANCH  19  20
HETATM   20  N2  XTK A 501      23.428  54.333  18.275  1.00  0.00    -0.309 NA
HETATM   21  C12 XTK A 501      22.972  52.948  18.314  1.00  0.00     0.011 C
HETATM   22  H2  XTK A 501      23.690  54.788  19.150  1.00  0.00     0.123 HD
HETATM   23  C15 XTK A 501      24.067  52.063  17.704  1.00  0.00     0.027 C
HETATM   24  C13 XTK A 501      21.663  52.839  17.533  1.00  0.00     0.027 C
HETATM   25  C14 XTK A 501      22.683  52.556  19.766  1.00  0.00     0.027 C
ENDBRANCH  19  20
ENDBRANCH  16  19
ENDBRANCH  15  16
ENDBRANCH  14  15
ENDBRANCH   9  14
TORSDOF 5
