REMARK  5 active torsions:
REMARK  status: ('A' for Active; 'I' for Inactive)
REMARK    1  A    between atoms: C7_2  and  C8_9
REMARK    2  A    between atoms: C8_9  and  C9_10
REMARK    3  A    between atoms: C9_10  and  N10_11
REMARK    4  A    between atoms: N10_11  and  C11_13
REMARK    5  A    between atoms: C20_17  and  C21_25
ROOT
HETATM    1  C1  ZMA A2401     -21.311  13.678  14.293  1.00  0.00     0.006 A
HETATM    2  C7  ZMA A2401     -20.455  12.667  14.791  1.00  0.00    -0.046 A
HETATM    3  O4  ZMA A2401     -19.484  16.683  15.307  1.00  0.00    -0.360 OA
HETATM    4  C6  ZMA A2401     -19.284  13.010  15.464  1.00  0.00     0.006 A
HETATM    5  C2  ZMA A2401     -20.980  15.032  14.472  1.00  0.00     0.033 A
HETATM    6  C5  ZMA A2401     -18.935  14.345  15.639  1.00  0.00     0.033 A
HETATM    7  H4  ZMA A2401     -18.680  16.905  15.762  1.00  0.00     0.217 HD
HETATM    8  C3  ZMA A2401     -19.794  15.359  15.144  1.00  0.00     0.073 A
ENDROOT
BRANCH   2   9
HETATM    9  C8  ZMA A2401     -20.853  11.207  14.576  1.00  0.00     0.050 C
BRANCH   9  10
HETATM   10  C9  ZMA A2401     -21.846  10.983  15.738  1.00  0.00     0.094 C
BRANCH  10  11
HETATM   11  N10 ZMA A2401     -22.240   9.591  15.928  1.00  0.00    -0.256 NA
HETATM   12  H10 ZMA A2401     -23.132   9.262  15.558  1.00  0.00     0.131 HD
BRANCH  11  13
HETATM   13  C11 ZMA A2401     -21.430   8.735  16.591  1.00  0.00     0.207 C
HETATM   14  N12 ZMA A2401     -21.830   7.437  16.760  1.00  0.00    -0.185 NA
HETATM   15  C18 ZMA A2401     -20.996   6.625  17.427  1.00  0.00     0.236 A
HETATM   16  N19 ZMA A2401     -21.187   5.323  17.737  1.00  0.00    -0.192 NA
HETATM   17  C20 ZMA A2401     -20.039   5.051  18.393  1.00  0.00     0.201 A
HETATM   18  N17 ZMA A2401     -19.130   6.050  18.534  1.00  0.00    -0.161 NA
HETATM   19 2H15 ZMA A2401     -17.976   9.777  18.025  1.00  0.00     0.126 HD
HETATM   20 1H15 ZMA A2401     -17.621   8.168  18.686  1.00  0.00     0.126 HD
HETATM   21  N16 ZMA A2401     -19.811   7.053  17.896  1.00  0.00    -0.072 NA
HETATM   22  N15 ZMA A2401     -18.239   8.804  18.183  1.00  0.00    -0.275 NA
HETATM   23  C14 ZMA A2401     -19.406   8.324  17.737  1.00  0.00     0.184 C
HETATM   24  N13 ZMA A2401     -20.232   9.174  17.065  1.00  0.00    -0.192 NA
BRANCH  17  25
HETATM   25  C21 ZMA A2401     -19.718   3.729  18.926  1.00  0.00     0.128 A
HETATM   26  C23 ZMA A2401     -19.722   1.712  19.653  1.00  0.00     0.028 A
HETATM   27  C22 ZMA A2401     -20.596   2.692  19.155  1.00  0.00     0.039 A
HETATM   28  O25 ZMA A2401     -18.408   3.527  19.220  1.00  0.00    -0.313 OA
HETATM   29  C24 ZMA A2401     -18.432   2.219  19.691  1.00  0.00     0.136 A
ENDBRANCH  17  25
ENDBRANCH  11  13
ENDBRANCH  10  11
ENDBRANCH   9  10
ENDBRANCH   2   9
TORSDOF 5
