MODEL        1
REMARK THIS MODEL IS IDENTICAL TO THE INPUT LIGAND AND NOT FROM DOCKING
REMARK 921   NORMALIZED FREE ENERGY PREDICTED BY IDOCK:   -9.77 KCAL/MOL
REMARK 922        TOTAL FREE ENERGY PREDICTED BY IDOCK:  -12.53 KCAL/MOL
REMARK 923 INTER-LIGAND FREE ENERGY PREDICTED BY IDOCK:  -12.05 KCAL/MOL
REMARK 924 INTRA-LIGAND FREE ENERGY PREDICTED BY IDOCK:   -0.48 KCAL/MOL
REMARK 927      BINDING AFFINITY PREDICTED BY RF-SCORE:    0.00 PKD
ROOT
HETATM    1  O01 FSY A2401       0.687  85.789 283.702  1.00  0.00    -0.101 OA 
HETATM    2  C02 FSY A2401       1.833  85.290 283.426  1.00  0.00    -0.387 C  
HETATM    3  C04 FSY A2401       3.095  86.151 283.593  1.00  0.00    -0.629 C  
HETATM    4  O03 FSY A2401       1.915  84.139 283.038  1.00  0.00     0.104 OA 
ENDROOT
BRANCH   3   5
HETATM    5  C05 FSY A2401       4.456  85.378 283.390  1.00  0.00    -0.529 A  
HETATM    6  C06 FSY A2401       5.573  85.801 282.633  1.00  0.00    -0.246 A  
HETATM    7  C07 FSY A2401       5.677  87.123 281.842  1.00  0.00    -0.551 C  
HETATM    8  N08 FSY A2401       6.508  84.905 282.712  1.00  0.00    -0.317 NA 
HETATM    9  C09 FSY A2401       6.110  83.871 283.483  1.00  0.00    -0.376 A  
HETATM   10  C12 FSY A2401       4.967  81.983 285.081  1.00  0.00    -0.581 A  
HETATM   11  C10 FSY A2401       4.834  84.117 283.936  1.00  0.00    -0.568 A  
HETATM   12  N14 FSY A2401       6.778  82.771 283.797  1.00  0.00    -0.347 NA 
HETATM   13  C11 FSY A2401       4.228  83.141 284.767  1.00  0.00    -0.802 A  
HETATM   14  C13 FSY A2401       6.240  81.834 284.578  1.00  0.00    -0.397 A  
BRANCH   8  15
HETATM   15  C15 FSY A2401       7.772  85.002 282.079  1.00  0.00    -0.400 C  
BRANCH  15  16
HETATM   16  C16 FSY A2401       7.640  84.702 280.531  1.00  0.00    -0.413 A  
HETATM   17  C19 FSY A2401       7.318  84.078 277.833  1.00  0.00    -0.342 A  
HETATM   18  C17 FSY A2401       6.819  83.642 280.138  1.00  0.00    -0.423 A  
HETATM   19  F25 FSY A2401       9.750  86.609 281.208  1.00  0.00    -0.476 F  
HETATM   20  C18 FSY A2401       6.661  83.330 278.790  1.00  0.00    -0.413 A  
HETATM   21  C20 FSY A2401       8.127  85.130 278.208  1.00  0.00    -0.519 A  
HETATM   22  F23 FSY A2401       8.568  87.728 279.706  1.00  0.00    -0.465 F  
HETATM   23  C21 FSY A2401       8.302  85.455 279.568  1.00  0.00    -0.446 A  
HETATM   24  F24 FSY A2401      10.249  86.615 279.028  1.00  0.00    -0.344 F  
HETATM   25  C22 FSY A2401       9.222  86.640 279.880  1.00  0.00    -0.332 C  
BRANCH  17  26
HETATM   26  S26 FSY A2401       7.110  83.672 276.077  1.00  0.00    -0.382 S  
HETATM   27  O27 FSY A2401       6.927  82.131 275.934  1.00  0.00    -0.644 OA 
HETATM   28  C29 FSY A2401       5.655  84.531 275.436  1.00  0.00    -0.272 C  
HETATM   29  O28 FSY A2401       8.329  84.118 275.314  1.00  0.00    -0.452 OA 
ENDBRANCH  17  26
ENDBRANCH  15  16
ENDBRANCH   8  15
ENDBRANCH   3   5
TORSDOF 4
ENDMDL
