MODEL        1
REMARK THIS MODEL IS IDENTICAL TO THE INPUT LIGAND AND NOT FROM DOCKING
REMARK 921   NORMALIZED FREE ENERGY PREDICTED BY IDOCK:   -8.67 KCAL/MOL
REMARK 922        TOTAL FREE ENERGY PREDICTED BY IDOCK:  -12.21 KCAL/MOL
REMARK 923 INTER-LIGAND FREE ENERGY PREDICTED BY IDOCK:  -12.21 KCAL/MOL
REMARK 924 INTRA-LIGAND FREE ENERGY PREDICTED BY IDOCK:    0.01 KCAL/MOL
REMARK 927      BINDING AFFINITY PREDICTED BY RF-SCORE:    0.00 PKD
ROOT
HETATM    1  N   KCA R 501      89.376 131.042 121.850  1.00  0.00    -0.351 N  
HETATM    2  OAA KCA R 501      88.440 132.050 120.095  1.00  0.00    -0.333 OA 
HETATM    3  CAB KCA R 501      89.418 131.480 120.588  1.00  0.00    -0.363 C  
HETATM    4  H   KCA R 501      90.144 130.492 122.236  1.00  0.00     0.000 HD 
ENDROOT
BRANCH   1   5
HETATM    5  CA  KCA R 501      88.196 131.370 122.675  1.00  0.00    -0.357 C  
BRANCH   5   6
HETATM    6  C   KCA R 501      88.164 132.892 122.980  1.00  0.00    -0.413 C  
HETATM    7  O   KCA R 501      87.319 133.561 122.384  1.00  0.00    -0.361 OA 
BRANCH   6   8
HETATM    8  OAF KCA R 501      89.075 133.446 123.826  1.00  0.00    -0.385 OA 
HETATM    9  CAG KCA R 501      88.847 134.859 123.986  1.00  0.00    -0.278 C  
ENDBRANCH   6   8
ENDBRANCH   5   6
BRANCH   5  10
HETATM   10  CB  KCA R 501      88.165 130.418 123.895  1.00  0.00    -0.438 C  
HETATM   11  CG1 KCA R 501      86.883 130.675 124.671  1.00  0.00    -0.705 C  
HETATM   12  CAL KCA R 501      89.379 130.473 124.835  1.00  0.00    -0.463 C  
HETATM   13  CG2 KCA R 501      88.133 129.001 123.332  1.00  0.00    -0.652 C  
ENDBRANCH   5  10
ENDBRANCH   1   5
BRANCH   3  14
HETATM   14  CAM KCA R 501      90.532 131.162 119.893  1.00  0.00    -0.327 A  
HETATM   15  CAY KCA R 501      90.799 131.413 118.604  1.00  0.00    -0.462 A  
HETATM   16  NAN KCA R 501      91.533 130.465 120.418  1.00  0.00    -0.315 NA 
HETATM   17  NAO KCA R 501      92.428 130.298 119.445  1.00  0.00    -0.320 NA 
HETATM   18  CAZ KCA R 501      90.154 132.057 117.638  1.00  0.00    -0.490 A  
HETATM   19  CBA KCA R 501      90.687 132.179 116.375  1.00  0.00    -0.488 A  
HETATM   20  CBB KCA R 501      91.924 131.618 116.121  1.00  0.00    -0.502 A  
HETATM   21  CBC KCA R 501      92.567 130.957 117.149  1.00  0.00    -0.522 A  
HETATM   22  CAX KCA R 501      91.971 130.859 118.333  1.00  0.00    -0.369 A  
BRANCH  17  23
HETATM   23  CAP KCA R 501      93.719 129.635 119.481  1.00  0.00    -0.437 C  
BRANCH  23  24
HETATM   24  CAQ KCA R 501      94.686 130.566 119.862  1.00  0.00    -0.374 A  
HETATM   25  CAR KCA R 501      94.540 131.941 119.852  1.00  0.00    -0.499 A  
HETATM   26  CAS KCA R 501      95.552 132.786 120.241  1.00  0.00    -0.650 A  
HETATM   27  CAT KCA R 501      96.744 132.236 120.668  1.00  0.00    -0.350 A  
HETATM   28  CAV KCA R 501      96.937 130.879 120.705  1.00  0.00    -0.484 A  
HETATM   29  FAU KCA R 501      97.563 132.898 120.989  1.00  0.00    -0.494 F  
HETATM   30  CAW KCA R 501      95.879 130.123 120.289  1.00  0.00    -0.031 A  
ENDBRANCH  23  24
ENDBRANCH  17  23
ENDBRANCH   3  14
TORSDOF 7
ENDMDL
