MODEL        1
REMARK THIS MODEL IS IDENTICAL TO THE INPUT LIGAND AND NOT FROM DOCKING
REMARK 921   NORMALIZED FREE ENERGY PREDICTED BY IDOCK:   -7.58 KCAL/MOL
REMARK 922        TOTAL FREE ENERGY PREDICTED BY IDOCK:   -9.86 KCAL/MOL
REMARK 923 INTER-LIGAND FREE ENERGY PREDICTED BY IDOCK:   -9.36 KCAL/MOL
REMARK 924 INTRA-LIGAND FREE ENERGY PREDICTED BY IDOCK:   -0.51 KCAL/MOL
REMARK 927      BINDING AFFINITY PREDICTED BY RF-SCORE:    0.00 PKD
ROOT
HETATM    1  C1  RET A1338      39.003 -30.972  33.378  1.00  0.00    -0.547 C  
HETATM    2  C17 RET A1338      39.153 -31.630  32.002  1.00  0.00    -0.575 C  
HETATM    3  C6  RET A1338      37.567 -30.877  33.765  1.00  0.00    -0.494 C  
HETATM    4  C16 RET A1338      39.624 -31.937  34.389  1.00  0.00    -0.382 C  
HETATM    5  C5  RET A1338      36.915 -29.699  33.906  1.00  0.00    -0.527 C  
HETATM    6  C2  RET A1338      39.687 -29.602  33.321  1.00  0.00    -0.580 C  
HETATM    7  C18 RET A1338      35.450 -29.515  34.129  1.00  0.00    -0.290 C  
HETATM    8  C4  RET A1338      37.604 -28.396  33.829  1.00  0.00    -0.681 C  
HETATM    9  C3  RET A1338      39.037 -28.598  34.262  1.00  0.00    -0.761 C  
ENDROOT
BRANCH   3  10
HETATM   10  C7  RET A1338      37.045 -32.229  33.955  1.00  0.00    -0.453 C  
HETATM   11  C8  RET A1338      35.958 -32.549  34.679  1.00  0.00    -0.575 C  
BRANCH  11  12
HETATM   12  C9  RET A1338      35.465 -33.891  34.775  1.00  0.00    -0.527 C  
HETATM   13  C10 RET A1338      34.287 -34.136  35.379  1.00  0.00    -0.549 C  
HETATM   14  C19 RET A1338      36.247 -34.987  34.126  1.00  0.00    -0.607 C  
BRANCH  13  15
HETATM   15  C11 RET A1338      33.675 -35.420  35.317  1.00  0.00    -0.405 C  
HETATM   16  C12 RET A1338      32.558 -35.734  36.000  1.00  0.00    -0.364 C  
BRANCH  16  17
HETATM   17  C13 RET A1338      31.943 -37.019  35.814  1.00  0.00    -0.390 C  
HETATM   18  C14 RET A1338      31.115 -37.573  36.727  1.00  0.00    -0.400 C  
HETATM   19  C20 RET A1338      32.303 -37.720  34.551  1.00  0.00     0.276 C  
HETATM   20  C15 RET A1338      30.551 -38.894  36.569  1.00  0.00    -0.293 C  
HETATM   21  O1  RET A1338      29.910 -39.431  37.473  1.00  0.00    -0.234 OA 
ENDBRANCH  16  17
ENDBRANCH  13  15
ENDBRANCH  11  12
ENDBRANCH   3  10
TORSDOF 4
ENDMDL
