REMARK  4 active torsions:
REMARK  status: ('A' for Active; 'I' for Inactive)
REMARK    1  A    between atoms: C6_8  and  C7_10
REMARK    2  A    between atoms: C8_11  and  C9_12
REMARK    3  A    between atoms: C10_14  and  C11_15
REMARK    4  A    between atoms: C12_16  and  C13_17
ROOT
HETATM    1  C1  RET A 977      62.335   6.706  -9.374  1.00  0.00    -0.010 C
HETATM    2  C2  RET A 977      63.457   6.267  -8.464  1.00  0.00     0.011 C
HETATM    3  C17 RET A 977      61.144   5.748  -9.226  1.00  0.00     0.016 C
HETATM    4  C16 RET A 977      62.815   6.605 -10.793  1.00  0.00     0.016 C
HETATM    5  C3  RET A 977      63.192   6.598  -7.027  1.00  0.00     0.005 C
HETATM    6  C4  RET A 977      63.018   8.132  -6.821  1.00  0.00     0.031 C
HETATM    7  C5  RET A 977      62.202   8.798  -7.930  1.00  0.00    -0.069 C
HETATM    8  C6  RET A 977      61.903   8.139  -9.082  1.00  0.00    -0.043 C
HETATM    9  C18 RET A 977      61.765  10.225  -7.602  1.00  0.00     0.039 C
ENDROOT
BRANCH   8  10
HETATM   10  C7  RET A 977      61.108   8.753 -10.175  1.00  0.00     0.004 C
HETATM   11  C8  RET A 977      59.845   9.178  -9.907  1.00  0.00     0.003 C
BRANCH  11  12
HETATM   12  C9  RET A 977      58.870   9.821 -10.813  1.00  0.00    -0.050 C
HETATM   13  C19 RET A 977      59.402   9.998 -12.198  1.00  0.00     0.044 C
HETATM   14  C10 RET A 977      57.626  10.211 -10.424  1.00  0.00     0.003 C
BRANCH  14  15
HETATM   15  C11 RET A 977      56.582  10.871 -11.236  1.00  0.00     0.001 C
HETATM   16  C12 RET A 977      55.335  11.243 -10.848  1.00  0.00     0.003 C
BRANCH  16  17
HETATM   17  C13 RET A 977      54.540  11.154  -9.586  1.00  0.00    -0.055 C
HETATM   18  C14 RET A 977      53.373  11.788  -9.452  1.00  0.00    -0.027 C
HETATM   19  C20 RET A 977      55.103  10.303  -8.482  1.00  0.00     0.043 C
HETATM   20  C15 RET A 977      52.545  11.720  -8.232  1.00  0.00     0.035 C
ENDBRANCH  16  17
ENDBRANCH  14  15
ENDBRANCH  11  12
ENDBRANCH   8  10
TORSDOF 4
