REMARK  6 active torsions:
REMARK  status: ('A' for Active; 'I' for Inactive)
REMARK    1  A    between atoms: C16_3  and  C18_4
REMARK    2  A    between atoms: C16_3  and  C15_10
REMARK    3  A    between atoms: C15_10  and  O14_11
REMARK    4  A    between atoms: C18_4  and  N19_5
REMARK    5  A    between atoms: O14_11  and  C13_12
REMARK    6  A    between atoms: N19_5  and  C20_7
ROOT
HETATM    1  O17 CAU A 500      10.010  15.702  46.519  1.00  0.00    -0.388 OA
HETATM    2  H17 CAU A 500       9.296  15.857  47.126  1.00  0.00     0.210 HD
HETATM    3  C16 CAU A 500      11.168  16.061  47.136  1.00  0.00     0.154 C
ENDROOT
BRANCH   3   4
HETATM    4  C18 CAU A 500      11.187  15.305  48.466  1.00  0.00     0.114 C
BRANCH   4   5
HETATM    5  N19 CAU A 500      10.325  14.092  48.588  1.00  0.00    -0.311 NA
HETATM    6  H19 CAU A 500      10.681  13.307  48.042  1.00  0.00     0.122 HD
BRANCH   5   7
HETATM    7  C20 CAU A 500      10.165  13.759  49.998  1.00  0.00     0.048 C
HETATM    8  C21 CAU A 500      10.537  12.326  50.340  1.00  0.00     0.023 C
HETATM    9  C22 CAU A 500       8.855  14.206  50.583  1.00  0.00     0.023 C
ENDBRANCH   5   7
ENDBRANCH   4   5
ENDBRANCH   3   4
BRANCH   3  10
HETATM   10  C15 CAU A 500      12.329  15.809  46.150  1.00  0.00     0.200 C
BRANCH  10  11
HETATM   11  O14 CAU A 500      13.544  15.444  46.714  1.00  0.00    -0.341 OA
BRANCH  11  12
HETATM   12  C13 CAU A 500      14.724  15.633  46.032  1.00  0.00     0.086 A
HETATM   13  H7  CAU A 500      18.989  17.230  46.635  1.00  0.00     0.134 HD
HETATM   14  C12 CAU A 500      14.843  15.261  44.669  1.00  0.00     0.033 A
HETATM   15  N7  CAU A 500      18.029  16.982  46.874  1.00  0.00    -0.257 NA
HETATM   16  C3  CAU A 500      17.394  17.149  48.134  1.00  0.00     0.028 A
HETATM   17  C11 CAU A 500      16.062  15.460  43.986  1.00  0.00     0.004 A
HETATM   18  C10 CAU A 500      17.176  16.030  44.650  1.00  0.00     0.021 A
HETATM   19  C8  CAU A 500      17.054  16.398  46.008  1.00  0.00     0.030 A
HETATM   20  C9  CAU A 500      15.841  16.200  46.689  1.00  0.00     0.032 A
HETATM   21  C4  CAU A 500      16.080  16.698  48.082  1.00  0.00     0.004 A
HETATM   22  C5  CAU A 500      15.223  16.752  49.207  1.00  0.00     0.010 A
HETATM   23  C6  CAU A 500      15.752  17.277  50.370  1.00  0.00     0.001 A
HETATM   24  C1  CAU A 500      17.097  17.739  50.421  1.00  0.00     0.002 A
HETATM   25  C2  CAU A 500      17.936  17.676  49.287  1.00  0.00     0.020 A
ENDBRANCH  11  12
ENDBRANCH  10  11
ENDBRANCH   3  10
TORSDOF 6
