MODEL        1
REMARK THIS MODEL IS IDENTICAL TO THE INPUT LIGAND AND NOT FROM DOCKING
REMARK 921   NORMALIZED FREE ENERGY PREDICTED BY IDOCK:  -11.62 KCAL/MOL
REMARK 922        TOTAL FREE ENERGY PREDICTED BY IDOCK:  -16.52 KCAL/MOL
REMARK 923 INTER-LIGAND FREE ENERGY PREDICTED BY IDOCK:  -15.69 KCAL/MOL
REMARK 924 INTRA-LIGAND FREE ENERGY PREDICTED BY IDOCK:   -0.83 KCAL/MOL
REMARK 927      BINDING AFFINITY PREDICTED BY RF-SCORE:    0.00 PKD
ROOT
HETATM    1  C4  ZD7 A1201     -16.923  14.423  41.882  1.00  0.00    -0.482 C  
HETATM    2  N1  ZD7 A1201     -17.848  15.247  41.236  1.00  0.00    -0.599 NA 
HETATM    3  C7  ZD7 A1201     -16.469  13.205  41.302  1.00  0.00    -0.819 C  
HETATM    4  H1  ZD7 A1201     -16.257   9.359  37.883  1.00  0.00     0.000 HD 
HETATM    5  C3  ZD7 A1201     -18.352  14.857  40.006  1.00  0.00    -0.434 C  
HETATM    6  C8  ZD7 A1201     -16.979  12.776  39.954  1.00  0.00    -0.363 C  
HETATM    7  C9  ZD7 A1201     -17.899  13.576  39.336  1.00  0.00    -0.535 C  
HETATM    8  O1  ZD7 A1201     -17.068   9.796  37.654  1.00  0.00    -0.608 OA 
HETATM    9  C10 ZD7 A1201     -18.455  13.136  37.967  1.00  0.00    -0.525 C  
HETATM   10  C11 ZD7 A1201     -18.662  11.639  37.939  1.00  0.00    -0.302 C  
HETATM   11  C12 ZD7 A1201     -17.389  10.953  38.299  1.00  0.00    -0.300 C  
HETATM   12  N2  ZD7 A1201     -16.562  11.514  39.304  1.00  0.00    -0.336 NA 
ENDROOT
BRANCH   1  13
HETATM   13  C5  ZD7 A1201     -16.393  14.832  43.228  1.00  0.00    -0.850 C  
HETATM   14  C6  ZD7 A1201     -17.292  14.304  44.302  1.00  0.00    -1.037 C  
ENDBRANCH   1  13
BRANCH   5  15
HETATM   15  C2  ZD7 A1201     -19.350  15.798  39.371  1.00  0.00    -0.555 C  
HETATM   16  C1  ZD7 A1201     -20.754  15.293  39.580  1.00  0.00    -0.647 C  
ENDBRANCH   5  15
BRANCH  12  17
HETATM   17  C13 ZD7 A1201     -15.273  10.956  39.738  1.00  0.00    -0.301 C  
BRANCH  17  18
HETATM   18  C14 ZD7 A1201     -15.285   9.813  40.750  1.00  0.00    -0.377 A  
HETATM   19  C15 ZD7 A1201     -16.568   9.233  41.285  1.00  0.00    -0.372 A  
HETATM   20  C16 ZD7 A1201     -16.521   8.199  42.218  1.00  0.00    -0.392 A  
HETATM   21  C19 ZD7 A1201     -15.171   7.693  42.692  1.00  0.00    -0.369 A  
HETATM   22  C18 ZD7 A1201     -14.005   8.228  42.198  1.00  0.00    -0.303 A  
HETATM   23  C17 ZD7 A1201     -14.054   9.336  41.172  1.00  0.00    -0.625 A  
BRANCH  21  24
HETATM   24  C20 ZD7 A1201     -15.067   6.543  43.686  1.00  0.00    -0.374 A  
HETATM   25  C21 ZD7 A1201     -15.522   6.712  44.973  1.00  0.00    -0.454 A  
HETATM   26  C22 ZD7 A1201     -15.406   5.565  45.935  1.00  0.00    -0.468 A  
HETATM   27  C23 ZD7 A1201     -14.846   4.370  45.545  1.00  0.00    -0.450 A  
HETATM   28  C24 ZD7 A1201     -14.341   4.187  44.144  1.00  0.00    -0.337 A  
HETATM   29  C25 ZD7 A1201     -14.446   5.227  43.253  1.00  0.00    -0.356 A  
BRANCH  29  30
HETATM   30  C26 ZD7 A1201     -13.952   5.051  41.859  1.00  0.00    -0.314 A  
HETATM   31  N3  ZD7 A1201     -14.695   5.291  40.673  1.00  0.00    -0.425 NA 
HETATM   32  N4  ZD7 A1201     -13.930   5.078  39.595  1.00  0.00    -0.700 NA 
HETATM   33  H3  ZD7 A1201     -15.672   5.584  40.646  1.00  0.00     0.000 HD 
HETATM   34  N5  ZD7 A1201     -12.697   4.706  40.096  1.00  0.00    -0.351 NA 
HETATM   35  N6  ZD7 A1201     -12.703   4.704  41.485  1.00  0.00    -0.335 NA 
ENDBRANCH  29  30
ENDBRANCH  21  24
ENDBRANCH  17  18
ENDBRANCH  12  17
TORSDOF 6
ENDMDL
