MODEL        1
REMARK THIS MODEL IS IDENTICAL TO THE INPUT LIGAND AND NOT FROM DOCKING
REMARK 921   NORMALIZED FREE ENERGY PREDICTED BY IDOCK:   -8.40 KCAL/MOL
REMARK 922        TOTAL FREE ENERGY PREDICTED BY IDOCK:  -11.32 KCAL/MOL
REMARK 923 INTER-LIGAND FREE ENERGY PREDICTED BY IDOCK:  -10.85 KCAL/MOL
REMARK 924 INTRA-LIGAND FREE ENERGY PREDICTED BY IDOCK:   -0.46 KCAL/MOL
REMARK 927      BINDING AFFINITY PREDICTED BY RF-SCORE:    0.00 PKD
ROOT
HETATM    1  C1  ZMA A1201      -1.422 -13.680  55.600  1.00  0.00    -0.376 A  
HETATM    2  C2  ZMA A1201      -0.873 -14.962  55.474  1.00  0.00    -0.311 A  
HETATM    3  C3  ZMA A1201       0.302 -15.144  54.736  1.00  0.00    -0.239 A  
HETATM    4  O4  ZMA A1201       0.839 -16.392  54.614  1.00  0.00    -0.188 OA 
HETATM    5  C5  ZMA A1201       0.924 -14.053  54.120  1.00  0.00    -0.395 A  
HETATM    6  C6  ZMA A1201       0.376 -12.773  54.243  1.00  0.00    -0.533 A  
HETATM    7  H4  ZMA A1201       0.417 -17.133  55.032  1.00  0.00     0.000 HD 
HETATM    8  C7  ZMA A1201      -0.802 -12.584  54.980  1.00  0.00    -0.347 A  
ENDROOT
BRANCH   8   9
HETATM    9  C8  ZMA A1201      -1.359 -11.305  55.111  1.00  0.00    -0.451 C  
BRANCH   9  10
HETATM   10  C9  ZMA A1201      -2.274 -10.979  53.913  1.00  0.00    -0.329 C  
BRANCH  10  11
HETATM   11  N10 ZMA A1201      -2.494  -9.524  53.811  1.00  0.00    -0.336 NA 
HETATM   12  H10 ZMA A1201      -3.332  -9.137  54.246  1.00  0.00     0.000 HD 
BRANCH  11  13
HETATM   13  C11 ZMA A1201      -1.665  -8.677  53.184  1.00  0.00    -0.346 C  
HETATM   14  N13 ZMA A1201      -0.458  -9.077  52.711  1.00  0.00    -0.419 NA 
HETATM   15  C14 ZMA A1201       0.359  -8.206  52.090  1.00  0.00    -0.347 C  
HETATM   16  N16 ZMA A1201      -0.052  -6.945  51.946  1.00  0.00    -0.280 NA 
HETATM   17  N15 ZMA A1201       1.540  -8.610  51.633  1.00  0.00    -0.838 NA 
HETATM   18  N17 ZMA A1201       0.545  -6.013  51.409  1.00  0.00    -0.671 NA 
HETATM   19 2H15 ZMA A1201       1.828  -9.581  51.753  1.00  0.00     0.000 HD 
HETATM   20 1H15 ZMA A1201       2.159  -7.950  51.162  1.00  0.00     0.000 HD 
HETATM   21  C20 ZMA A1201      -0.232  -4.935  51.481  1.00  0.00    -0.508 A  
HETATM   22  N19 ZMA A1201      -1.354  -5.240  52.111  1.00  0.00    -0.424 NA 
HETATM   23  N12 ZMA A1201      -2.054  -7.395  53.025  1.00  0.00    -0.470 NA 
HETATM   24  C18 ZMA A1201      -1.239  -6.525  52.401  1.00  0.00    -0.448 A  
BRANCH  21  25
HETATM   25  C21 ZMA A1201       0.087  -3.725  51.025  1.00  0.00    -0.322 A  
HETATM   26  C23 ZMA A1201      -0.050  -1.671  50.400  1.00  0.00    -0.599 A  
HETATM   27  C22 ZMA A1201      -0.760  -2.716  50.833  1.00  0.00    -0.703 A  
HETATM   28  C24 ZMA A1201       1.239  -2.015  50.336  1.00  0.00    -0.402 A  
HETATM   29  O25 ZMA A1201       1.339  -3.339  50.742  1.00  0.00    -0.570 OA 
ENDBRANCH  21  25
ENDBRANCH  11  13
ENDBRANCH  10  11
ENDBRANCH   9  10
ENDBRANCH   8   9
TORSDOF 5
ENDMDL
