MODEL        1
REMARK THIS MODEL IS IDENTICAL TO THE INPUT LIGAND AND NOT FROM DOCKING
REMARK 921   NORMALIZED FREE ENERGY PREDICTED BY IDOCK:  -10.28 KCAL/MOL
REMARK 922        TOTAL FREE ENERGY PREDICTED BY IDOCK:  -14.90 KCAL/MOL
REMARK 923 INTER-LIGAND FREE ENERGY PREDICTED BY IDOCK:  -14.48 KCAL/MOL
REMARK 924 INTRA-LIGAND FREE ENERGY PREDICTED BY IDOCK:   -0.42 KCAL/MOL
REMARK 927      BINDING AFFINITY PREDICTED BY RF-SCORE:    0.00 PKD
ROOT
HETATM    1  O3  Y00 A 406     -42.022  25.883  -2.861  1.00  0.00    -0.580 OA 
HETATM    2  C16 Y00 A 406     -42.235  26.108  -4.177  1.00  0.00    -0.474 A  
HETATM    3  H3  Y00 A 406     -41.144  25.952  -2.506  1.00  0.00     0.000 HD 
HETATM    4  C15 Y00 A 406     -43.526  26.006  -4.699  1.00  0.00    -0.685 A  
HETATM    5  C14 Y00 A 406     -43.746  26.232  -6.056  1.00  0.00    -0.644 A  
HETATM    6  C13 Y00 A 406     -42.670  26.554  -6.884  1.00  0.00    -0.543 A  
HETATM    7  C18 Y00 A 406     -41.374  26.647  -6.349  1.00  0.00    -0.637 A  
HETATM    8  C17 Y00 A 406     -41.161  26.438  -4.992  1.00  0.00    -0.633 A  
ENDROOT
BRANCH   6   9
HETATM    9  C12 Y00 A 406     -42.911  26.793  -8.358  1.00  0.00    -0.513 C  
BRANCH   9  10
HETATM   10  C11 Y00 A 406     -42.843  28.293  -8.624  1.00  0.00    -0.566 C  
BRANCH  10  11
HETATM   11  C9  Y00 A 406     -42.899  28.626 -10.114  1.00  0.00    -0.309 C  
HETATM   12  C10 Y00 A 406     -43.094  30.135 -10.266  1.00  0.00    -0.783 C  
BRANCH  11  13
HETATM   13  N1  Y00 A 406     -41.711  28.151 -10.823  1.00  0.00    -0.491 NA 
HETATM   14  H1  Y00 A 406     -40.867  27.922 -10.298  1.00  0.00     0.000 HD 
BRANCH  13  15
HETATM   15  C8  Y00 A 406     -41.723  28.003 -12.267  1.00  0.00    -0.481 C  
BRANCH  15  16
HETATM   16  C1  Y00 A 406     -40.382  27.611 -12.879  1.00  0.00    -0.621 C  
BRANCH  16  17
HETATM   17  C2  Y00 A 406     -40.397  27.866 -14.381  1.00  0.00    -0.683 A  
HETATM   18  C7  Y00 A 406     -41.426  27.342 -15.191  1.00  0.00    -0.812 A  
HETATM   19  C6  Y00 A 406     -41.444  27.581 -16.564  1.00  0.00    -0.587 A  
HETATM   20  C5  Y00 A 406     -40.357  28.396 -17.156  1.00  0.00    -0.634 A  
HETATM   21  O1  Y00 A 406     -42.434  27.079 -17.356  1.00  0.00    -0.891 OA 
HETATM   22  H1  Y00 A 406     -42.446  27.242 -18.292  1.00  0.00     0.000 HD 
HETATM   23  O2  Y00 A 406     -40.356  28.644 -18.492  1.00  0.00    -1.095 OA 
HETATM   24  C4  Y00 A 406     -39.361  28.900 -16.325  1.00  0.00    -0.958 A  
HETATM   25  H2  Y00 A 406     -39.659  29.166 -18.872  1.00  0.00     0.000 HD 
HETATM   26  C3  Y00 A 406     -39.378  28.634 -14.956  1.00  0.00    -0.865 A  
ENDBRANCH  16  17
ENDBRANCH  15  16
ENDBRANCH  13  15
ENDBRANCH  11  13
ENDBRANCH  10  11
ENDBRANCH   9  10
ENDBRANCH   6   9
TORSDOF 7
ENDMDL
