REMARK 11 active torsions:
REMARK  status: ('A' for Active; 'I' for Inactive)
REMARK    1  A    between atoms: C8_3  and  S11_7
REMARK    2  A    between atoms: S11_7  and  N14_10
REMARK    3  A    between atoms: N14_10  and  C15_12
REMARK    4  A    between atoms: C5_5  and  C2_38
REMARK    5  A    between atoms: C16_13  and  O31_18
REMARK    6  A    between atoms: C17_16  and  O27_27
REMARK    7  A    between atoms: O31_18  and  C32_19
REMARK    8  A    between atoms: O27_27  and  C28_28
REMARK    9  A    between atoms: C19_17  and  C21_32
REMARK   10  A    between atoms: C28_28  and  C29_29
REMARK   11  A    between atoms: C37_21  and  O38_25
ROOT
HETATM    1  C10 K86 A1201     -34.062   7.765  13.410  1.00  0.00     0.022 A
HETATM    2  C9  K86 A1201     -34.196   6.479  12.896  1.00  0.00     0.123 A
HETATM    3  C8  K86 A1201     -33.425   5.447  13.410  1.00  0.00    -0.588 A
HETATM    4  C7  K86 A1201     -32.520   5.689  14.428  1.00  0.00     0.123 A
HETATM    5  C5  K86 A1201     -33.158   8.013  14.434  1.00  0.00    -0.040 A
HETATM    6  C6  K86 A1201     -32.388   6.974  14.940  1.00  0.00     0.022 A
ENDROOT
BRANCH   3   7
HETATM    7  S11 K86 A1201     -33.588   3.755  12.747  1.00  0.00     2.571 S
HETATM    8  O12 K86 A1201     -34.885   3.172  13.095  1.00  0.00    -0.924 OA
HETATM    9  O13 K86 A1201     -32.658   2.858  13.436  1.00  0.00    -0.924 OA
BRANCH   7  10
HETATM   10  N14 K86 A1201     -33.343   3.750  11.051  1.00  0.00    -0.823 N
HETATM   11  H14 K86 A1201     -34.075   3.422  10.422  1.00  0.00     0.253 HD
BRANCH  10  12
HETATM   12  C15 K86 A1201     -32.068   4.224  10.524  1.00  0.00     0.235 A
HETATM   13  C16 K86 A1201     -31.724   4.027   9.193  1.00  0.00     0.180 A
HETATM   14  N20 K86 A1201     -31.240   4.834  11.344  1.00  0.00    -0.199 NA
HETATM   15  N18 K86 A1201     -29.695   5.123   9.652  1.00  0.00    -0.198 NA
HETATM   16  C17 K86 A1201     -30.483   4.516   8.773  1.00  0.00     0.205 A
HETATM   17  C19 K86 A1201     -30.080   5.275  10.906  1.00  0.00     0.202 A
BRANCH  13  18
HETATM   18  O31 K86 A1201     -32.618   3.382   8.331  1.00  0.00    -0.299 OA
BRANCH  18  19
HETATM   19  C32 K86 A1201     -32.473   1.986   8.351  1.00  0.00     0.113 A
HETATM   20  C35 K86 A1201     -32.241  -0.786   8.341  1.00  0.00     0.003 A
HETATM   21  C37 K86 A1201     -33.387   1.209   7.661  1.00  0.00     0.106 A
HETATM   22  C36 K86 A1201     -33.270  -0.170   7.652  1.00  0.00     0.035 A
HETATM   23  C34 K86 A1201     -31.325  -0.011   9.032  1.00  0.00     0.003 A
HETATM   24  C33 K86 A1201     -31.442   1.371   9.040  1.00  0.00     0.036 A
BRANCH  21  25
HETATM   25  O38 K86 A1201     -34.434   1.825   6.975  1.00  0.00    -0.345 OA
HETATM   26  C39 K86 A1201     -34.196   2.012   5.617  1.00  0.00     0.202 C
ENDBRANCH  21  25
ENDBRANCH  18  19
ENDBRANCH  13  18
BRANCH  16  27
HETATM   27  O27 K86 A1201     -30.054   4.367   7.443  1.00  0.00    -0.324 OA
BRANCH  27  28
HETATM   28  C28 K86 A1201     -29.857   5.583   6.771  1.00  0.00     0.197 C
BRANCH  28  29
HETATM   29  C29 K86 A1201     -28.368   5.933   6.794  1.00  0.00     0.184 C
HETATM   30  H30 K86 A1201     -27.325   7.542   6.703  1.00  0.00     0.209 HD
HETATM   31  O30 K86 A1201     -28.249   7.325   6.689  1.00  0.00    -0.393 OA
ENDBRANCH  28  29
ENDBRANCH  27  28
ENDBRANCH  16  27
BRANCH  17  32
HETATM   32  C21 K86 A1201     -29.176   5.971  11.921  1.00  0.00     0.198 A
HETATM   33  N22 K86 A1201     -29.113   5.477  13.144  1.00  0.00    -0.233 NA
HETATM   34  N26 K86 A1201     -28.495   7.040  11.554  1.00  0.00    -0.233 NA
HETATM   35  C23 K86 A1201     -28.351   6.035  14.068  1.00  0.00     0.115 A
HETATM   36  C25 K86 A1201     -27.710   7.656  12.420  1.00  0.00     0.115 A
HETATM   37  C24 K86 A1201     -27.618   7.160  13.715  1.00  0.00     0.039 A
ENDBRANCH  17  32
ENDBRANCH  10  12
ENDBRANCH   7  10
ENDBRANCH   3   7
BRANCH   5  38
HETATM   38  C2  K86 A1201     -32.997   9.432  15.012  1.00  0.00    -0.013 C
HETATM   39  C3  K86 A1201     -34.057  10.371  14.436  1.00  0.00     0.015 C
HETATM   40  C4  K86 A1201     -33.130   9.398  16.533  1.00  0.00     0.015 C
HETATM   41  C1  K86 A1201     -31.617   9.968  14.644  1.00  0.00     0.015 C
ENDBRANCH   5  38
TORSDOF 11
