REMARK  4 active torsions:
REMARK  status: ('A' for Active; 'I' for Inactive)
REMARK    1  A    between atoms: C9_10  and  C18_19
REMARK    2  A    between atoms: N20_21  and  C21_23
REMARK    3  A    between atoms: C26_39  and  C27_40
REMARK    4  A    between atoms: C27_40  and  C28_41
ROOT
HETATM    1  C10 2GM A2001     -22.342   8.358  21.858  1.00  0.00     0.023 C
HETATM    2  C11 2GM A2001     -22.843   6.945  22.106  1.00  0.00     0.038 C
HETATM    3  C5  2GM A2001     -21.918   5.804  21.599  1.00  0.00     0.068 C
HETATM    4  N6  2GM A2001     -21.284   6.029  20.204  1.00  0.00    -0.301 NA
HETATM    5  C4  2GM A2001     -22.661   4.461  21.654  1.00  0.00     0.056 C
HETATM    6  C7  2GM A2001     -20.046   5.311  19.946  1.00  0.00     0.105 C
HETATM    7  C3  2GM A2001     -23.315   4.240  22.974  1.00  0.00    -0.026 A
HETATM    8  C8  2GM A2001     -20.956   7.475  19.903  1.00  0.00     0.096 C
HETATM    9  C17 2GM A2001     -23.687   5.328  23.770  1.00  0.00     0.001 A
HETATM   10  C9  2GM A2001     -21.928   8.543  20.409  1.00  0.00     0.086 C
HETATM   11  C12 2GM A2001     -23.463   6.639  23.480  1.00  0.00    -0.034 A
HETATM   12  C16 2GM A2001     -24.266   4.872  24.944  1.00  0.00     0.027 A
HETATM   13  N1  2GM A2001     -24.286   3.473  24.837  1.00  0.00    -0.264 NA
HETATM   14  C13 2GM A2001     -23.910   7.593  24.455  1.00  0.00     0.004 A
HETATM   15  C15 2GM A2001     -24.686   5.751  25.899  1.00  0.00     0.020 A
HETATM   16  C2  2GM A2001     -23.688   3.102  23.659  1.00  0.00     0.061 A
HETATM   17  C14 2GM A2001     -24.529   7.133  25.679  1.00  0.00     0.002 A
HETATM   18  H1  2GM A2001     -24.682   2.833  25.526  1.00  0.00     0.133 HD
ENDROOT
BRANCH  10  19
HETATM   19  C18 2GM A2001     -21.249   9.898  20.291  1.00  0.00     0.208 C
HETATM   20  O19 2GM A2001     -20.169  10.100  20.848  1.00  0.00    -0.279 OA
HETATM   21  N20 2GM A2001     -21.962  10.930  19.500  1.00  0.00    -0.222 N
HETATM   22  H20 2GM A2001     -22.864  10.700  19.083  1.00  0.00     0.134 HD
BRANCH  21  23
HETATM   23  C21 2GM A2001     -21.399  12.291  19.298  1.00  0.00     0.202 C
HETATM   24  O24 2GM A2001     -22.260  13.363  21.273  1.00  0.00    -0.274 OA
HETATM   25  C23 2GM A2001     -21.285  13.070  20.570  1.00  0.00     0.255 C
HETATM   26  C41 2GM A2001     -19.083  12.869  19.809  1.00  0.00     0.255 C
HETATM   27  C22 2GM A2001     -22.241  12.983  18.246  1.00  0.00     0.070 C
HETATM   28  O42 2GM A2001     -18.264  11.893  20.339  1.00  0.00    -0.351 OA
HETATM   29  C40 2GM A2001     -18.168  13.981  19.233  1.00  0.00     0.141 C
HETATM   30  O43 2GM A2001     -19.959  12.208  18.788  1.00  0.00    -0.305 OA
HETATM   31  N25 2GM A2001     -19.998  13.324  20.767  1.00  0.00    -0.175 N
HETATM   32  C39 2GM A2001     -16.773  13.650  18.584  1.00  0.00     0.027 C
HETATM   33  H42 2GM A2001     -17.709  12.312  20.986  1.00  0.00     0.214 HD
HETATM   34  C38 2GM A2001     -16.160  15.141  18.494  1.00  0.00     0.018 C
HETATM   35  C37 2GM A2001     -16.804  15.871  19.645  1.00  0.00     0.093 C
HETATM   36  N36 2GM A2001     -17.833  14.954  20.117  1.00  0.00    -0.233 N
HETATM   37  C34 2GM A2001     -18.433  15.082  21.428  1.00  0.00     0.222 C
HETATM   38  O35 2GM A2001     -18.074  15.995  22.189  1.00  0.00    -0.278 OA
HETATM   39  C26 2GM A2001     -19.476  14.110  21.943  1.00  0.00     0.156 C
BRANCH  39  40
HETATM   40  C27 2GM A2001     -19.090  13.448  23.265  1.00  0.00     0.063 C
BRANCH  40  41
HETATM   41  C28 2GM A2001     -20.213  12.692  23.971  1.00  0.00    -0.045 A
HETATM   42  C33 2GM A2001     -21.401  13.348  24.372  1.00  0.00     0.004 A
HETATM   43  C32 2GM A2001     -22.416  12.629  25.029  1.00  0.00     0.000 A
HETATM   44  C31 2GM A2001     -22.226  11.268  25.290  1.00  0.00     0.000 A
HETATM   45  C30 2GM A2001     -21.043  10.610  24.924  1.00  0.00     0.000 A
HETATM   46  C29 2GM A2001     -20.032  11.324  24.275  1.00  0.00     0.004 A
ENDBRANCH  40  41
ENDBRANCH  39  40
ENDBRANCH  21  23
ENDBRANCH  10  19
TORSDOF 4
