REMARK  6 active torsions:
REMARK  status: ('A' for Active; 'I' for Inactive)
REMARK    1  A    between atoms: C4_6  and  N1_9
REMARK    2  A    between atoms: C11_13  and  C12_17
REMARK    3  A    between atoms: C12_17  and  O1_18
REMARK    4  A    between atoms: O1_18  and  C13_19
REMARK    5  A    between atoms: C20_22  and  C21_29
REMARK    6  A    between atoms: C21_29  and  C22_30
ROOT
HETATM    1  N2  EP5 S 401      94.892  43.895  63.995  1.00  0.00    -0.191 NA
HETATM    2  C10 EP5 S 401      95.112  45.037  63.976  1.00  0.00     0.099 C
HETATM    3  C7  EP5 S 401      95.368  46.291  63.867  1.00  0.00     0.052 A
HETATM    4  C8  EP5 S 401      95.078  46.968  62.684  1.00  0.00     0.020 A
HETATM    5  C9  EP5 S 401      95.356  48.332  62.574  1.00  0.00     0.021 A
HETATM    6  C4  EP5 S 401      95.931  49.038  63.646  1.00  0.00     0.018 A
HETATM    7  C5  EP5 S 401      96.223  48.346  64.825  1.00  0.00     0.021 A
HETATM    8  C6  EP5 S 401      95.940  46.985  64.934  1.00  0.00     0.020 A
ENDROOT
BRANCH   6   9
HETATM    9  N1  EP5 S 401      96.226  50.413  63.537  1.00  0.00    -0.272 NA
HETATM   10  C   EP5 S 401      96.838  50.945  62.329  1.00  0.00     0.106 C
HETATM   11  C1  EP5 S 401      98.176  51.526  62.752  1.00  0.00     0.108 C
HETATM   12  N   EP5 S 401      97.819  52.615  63.660  1.00  0.00    -0.240 N
HETATM   13  C11 EP5 S 401      97.988  53.907  63.317  1.00  0.00     0.230 C
HETATM   14  C2  EP5 S 401      97.266  52.097  64.916  1.00  0.00     0.108 C
HETATM   15  O   EP5 S 401      98.259  54.252  62.176  1.00  0.00    -0.277 OA
HETATM   16  C3  EP5 S 401      95.957  51.381  64.603  1.00  0.00     0.106 C
BRANCH  13  17
HETATM   17  C12 EP5 S 401      97.848  55.027  64.323  1.00  0.00     0.259 C
BRANCH  17  18
HETATM   18  O1  EP5 S 401      96.601  55.681  64.068  1.00  0.00    -0.336 OA
BRANCH  18  19
HETATM   19  C13 EP5 S 401      96.229  56.891  64.606  1.00  0.00     0.077 A
HETATM   20  C14 EP5 S 401      94.862  57.121  64.805  1.00  0.00     0.042 A
HETATM   21  C15 EP5 S 401      94.456  58.339  65.342  1.00  0.00    -0.000 A
HETATM   22  C20 EP5 S 401      93.139  58.915  65.694  1.00  0.00    -0.027 A
HETATM   23  C17 EP5 S 401      96.793  59.111  65.473  1.00  0.00     0.023 A
HETATM   24  C19 EP5 S 401      93.429  60.188  66.191  1.00  0.00     0.061 A
HETATM   25  N3  EP5 S 401      94.767  60.431  66.184  1.00  0.00    -0.264 NA
HETATM   26  C18 EP5 S 401      97.176  57.881  64.936  1.00  0.00     0.034 A
HETATM   27  C16 EP5 S 401      95.447  59.377  65.689  1.00  0.00     0.027 A
HETATM   28  H3  EP5 S 401      95.199  61.296  66.510  1.00  0.00     0.133 HD
BRANCH  22  29
HETATM   29  C21 EP5 S 401      91.764  58.295  65.529  1.00  0.00     0.051 C
BRANCH  29  30
HETATM   30  C22 EP5 S 401      91.684  56.870  66.060  1.00  0.00     0.082 C
HETATM   31  N4  EP5 S 401      90.299  56.510  66.407  1.00  0.00    -0.330 NA
HETATM   32  H42 EP5 S 401      89.666  56.654  65.621  1.00  0.00     0.118 HD
HETATM   33  H41 EP5 S 401      90.245  55.556  66.763  1.00  0.00     0.118 HD
ENDBRANCH  29  30
ENDBRANCH  22  29
ENDBRANCH  18  19
ENDBRANCH  17  18
ENDBRANCH  13  17
ENDBRANCH   6   9
TORSDOF 6
