REMARK  6 active torsions:
REMARK  status: ('A' for Active; 'I' for Inactive)
REMARK    1  A    between atoms: C6_4  and  O2_9
REMARK    2  A    between atoms: O2_9  and  C5_10
REMARK    3  A    between atoms: C5_10  and  C4_11
REMARK    4  A    between atoms: C4_11  and  C3_14
REMARK    5  A    between atoms: C3_14  and  N_15
REMARK    6  A    between atoms: CB_18  and  CG_21
ROOT
HETATM    1  N1  G90 A1359     -22.087 -11.059  29.587  1.00  0.00    -0.191 NA
HETATM    2  C12 G90 A1359     -21.508 -10.513  28.741  1.00  0.00     0.102 C
HETATM    3  C7  G90 A1359     -20.816  -9.956  27.812  1.00  0.00     0.082 A
HETATM    4  C6  G90 A1359     -21.416  -9.635  26.483  1.00  0.00     0.094 A
HETATM    5  C11 G90 A1359     -20.623  -9.052  25.504  1.00  0.00     0.034 A
HETATM    6  C9  G90 A1359     -18.725  -9.068  27.021  1.00  0.00     0.001 A
HETATM    7  C10 G90 A1359     -19.290  -8.767  25.778  1.00  0.00     0.003 A
HETATM    8  C8  G90 A1359     -19.473  -9.659  28.038  1.00  0.00     0.021 A
ENDROOT
BRANCH   4   9
HETATM    9  O2  G90 A1359     -22.721  -9.924  26.207  1.00  0.00    -0.341 OA
BRANCH   9  10
HETATM   10  C5  G90 A1359     -23.731  -8.926  26.272  1.00  0.00     0.200 C
BRANCH  10  11
HETATM   11  C4  G90 A1359     -25.082  -9.602  26.097  1.00  0.00     0.154 C
HETATM   12  H1  G90 A1359     -26.405  -9.803  24.664  1.00  0.00     0.210 HD
HETATM   13  O1  G90 A1359     -25.561  -9.381  24.773  1.00  0.00    -0.388 OA
BRANCH  11  14
HETATM   14  C3  G90 A1359     -24.920 -11.098  26.316  1.00  0.00     0.115 C
BRANCH  14  15
HETATM   15  N   G90 A1359     -26.062 -11.590  27.068  1.00  0.00    -0.308 NA
HETATM   16  CA  G90 A1359     -26.270 -12.981  27.407  1.00  0.00     0.018 C
HETATM   17  H   G90 A1359     -26.760 -10.913  27.376  1.00  0.00     0.123 HD
HETATM   18  CB  G90 A1359     -27.681 -13.317  26.919  1.00  0.00     0.058 C
HETATM   19  C2  G90 A1359     -25.269 -13.915  26.733  1.00  0.00     0.027 C
HETATM   20  C1  G90 A1359     -26.109 -13.047  28.923  1.00  0.00     0.027 C
BRANCH  18  21
HETATM   21  CG  G90 A1359     -28.325 -14.488  27.633  1.00  0.00    -0.026 A
HETATM   22  CD1 G90 A1359     -28.248 -15.829  27.277  1.00  0.00     0.061 A
HETATM   23  NE1 G90 A1359     -28.959 -16.613  28.136  1.00  0.00    -0.264 NA
HETATM   24  CE2 G90 A1359     -29.542 -15.869  29.106  1.00  0.00     0.027 A
HETATM   25  HE1 G90 A1359     -29.041 -17.627  28.059  1.00  0.00     0.133 HD
HETATM   26  CD2 G90 A1359     -29.180 -14.458  28.846  1.00  0.00    -0.003 A
HETATM   27  CE3 G90 A1359     -29.624 -13.424  29.669  1.00  0.00     0.010 A
HETATM   28  CZ3 G90 A1359     -30.430 -13.758  30.757  1.00  0.00     0.001 A
HETATM   29  CH2 G90 A1359     -30.784 -15.091  31.012  1.00  0.00     0.002 A
HETATM   30  CZ2 G90 A1359     -30.351 -16.150  30.202  1.00  0.00     0.020 A
ENDBRANCH  18  21
ENDBRANCH  14  15
ENDBRANCH  11  14
ENDBRANCH  10  11
ENDBRANCH   9  10
ENDBRANCH   4   9
TORSDOF 6
