MODEL        1
REMARK THIS MODEL IS IDENTICAL TO THE INPUT LIGAND AND NOT FROM DOCKING
REMARK 921   NORMALIZED FREE ENERGY PREDICTED BY IDOCK:   -9.01 KCAL/MOL
REMARK 922        TOTAL FREE ENERGY PREDICTED BY IDOCK:  -12.83 KCAL/MOL
REMARK 923 INTER-LIGAND FREE ENERGY PREDICTED BY IDOCK:  -12.16 KCAL/MOL
REMARK 924 INTRA-LIGAND FREE ENERGY PREDICTED BY IDOCK:   -0.67 KCAL/MOL
REMARK 927      BINDING AFFINITY PREDICTED BY RF-SCORE:    0.00 PKD
ROOT
HETATM    1  C4  OLM A1201     -38.457  63.365  29.082  1.00  0.00     0.086 A  
HETATM    2  C5  OLM A1201     -39.204  62.344  29.672  1.00  0.00    -0.248 A  
HETATM    3  C3  OLM A1201     -39.090  64.377  28.362  1.00  0.00    -0.187 A  
HETATM    4  C6  OLM A1201     -40.598  62.367  29.534  1.00  0.00    -0.310 A  
HETATM    5  C2  OLM A1201     -40.480  64.412  28.223  1.00  0.00    -0.444 A  
HETATM    6  C7  OLM A1201     -41.235  63.386  28.813  1.00  0.00    -0.322 A  
ENDROOT
BRANCH   2   7
HETATM    7  C8  OLM A1201     -38.569  61.328  30.405  1.00  0.00    -0.348 A  
HETATM    8  C9  OLM A1201     -38.978  61.134  31.733  1.00  0.00    -0.365 A  
HETATM    9  C10 OLM A1201     -38.395  60.151  32.530  1.00  0.00    -0.395 A  
HETATM   10  C12 OLM A1201     -36.959  59.530  30.691  1.00  0.00    -0.245 A  
HETATM   11  C11 OLM A1201     -37.384  59.349  32.008  1.00  0.00    -0.362 A  
HETATM   12  C13 OLM A1201     -37.543  60.510  29.881  1.00  0.00    -0.213 A  
BRANCH  12  13
HETATM   13  C14 OLM A1201     -37.093  60.646  28.632  1.00  0.00    -0.293 A  
HETATM   14  N4  OLM A1201     -37.002  60.651  26.635  1.00  0.00    -0.538 NA 
HETATM   15  H5  OLM A1201     -38.696  59.991  27.438  1.00  0.00     0.000 HD 
HETATM   16  N3  OLM A1201     -35.872  61.115  27.122  1.00  0.00    -0.503 NA 
HETATM   17  N5  OLM A1201     -37.752  60.367  27.521  1.00  0.00    -0.454 NA 
HETATM   18  N2  OLM A1201     -35.908  61.125  28.297  1.00  0.00    -0.382 NA 
ENDBRANCH  12  13
ENDBRANCH   2   7
BRANCH   5  19
HETATM   19  C1  OLM A1201     -40.992  65.501  27.482  1.00  0.00    -0.082 C  
BRANCH  19  20
HETATM   20  N1  OLM A1201     -42.461  65.501  27.376  1.00  0.00    -0.348 NA 
HETATM   21  C15 OLM A1201     -43.398  66.051  28.173  1.00  0.00    -0.387 A  
HETATM   22  O1  OLM A1201     -41.944  64.919  24.460  1.00  0.00    -0.345 OA 
HETATM   23  H3  OLM A1201     -46.736  66.246  26.107  1.00  0.00     0.000 HD 
HETATM   24  N6  OLM A1201     -44.607  65.823  27.667  1.00  0.00    -0.517 NA 
HETATM   25  C16 OLM A1201     -44.446  65.136  26.546  1.00  0.00    -0.305 A  
HETATM   26  O2  OLM A1201     -42.661  63.038  25.258  1.00  0.00    -0.233 OA 
HETATM   27  O3  OLM A1201     -46.837  65.303  26.157  1.00  0.00    -0.340 OA 
HETATM   28  C17 OLM A1201     -43.136  64.940  26.359  1.00  0.00    -0.316 A  
HETATM   29  C22 OLM A1201     -45.637  64.676  25.668  1.00  0.00    -0.313 C  
HETATM   30  C21 OLM A1201     -42.571  64.284  25.337  1.00  0.00    -0.309 C  
HETATM   31  C23 OLM A1201     -45.441  65.138  24.215  1.00  0.00    -0.545 C  
HETATM   32  C24 OLM A1201     -45.801  63.138  25.749  1.00  0.00    -0.276 C  
BRANCH  21  33
HETATM   33  C18 OLM A1201     -43.248  66.847  29.497  1.00  0.00    -0.694 C  
BRANCH  33  34
HETATM   34  C19 OLM A1201     -42.366  66.102  30.471  1.00  0.00    -0.649 C  
HETATM   35  C20 OLM A1201     -42.758  66.654  31.824  1.00  0.00    -0.984 C  
ENDBRANCH  33  34
ENDBRANCH  21  33
ENDBRANCH  19  20
ENDBRANCH   5  19
TORSDOF 6
ENDMDL
