MODEL        1
REMARK THIS MODEL IS IDENTICAL TO THE INPUT LIGAND AND NOT FROM DOCKING
REMARK 921   NORMALIZED FREE ENERGY PREDICTED BY IDOCK:   -9.89 KCAL/MOL
REMARK 922        TOTAL FREE ENERGY PREDICTED BY IDOCK:  -12.53 KCAL/MOL
REMARK 923 INTER-LIGAND FREE ENERGY PREDICTED BY IDOCK:  -12.21 KCAL/MOL
REMARK 924 INTRA-LIGAND FREE ENERGY PREDICTED BY IDOCK:   -0.33 KCAL/MOL
REMARK 927      BINDING AFFINITY PREDICTED BY RF-SCORE:    0.00 PKD
ROOT
HETATM    1  CAA H8M A1204      16.420  24.154  11.230  1.00  0.00    -0.488 C  
HETATM    2  OAO H8M A1204      17.698  24.040  10.679  1.00  0.00    -0.354 OA 
ENDROOT
BRANCH   2   3
HETATM    3  CAT H8M A1204      18.142  22.732  10.563  1.00  0.00    -0.414 A  
HETATM    4  CAF H8M A1204      17.463  21.841   9.726  1.00  0.00    -0.717 A  
HETATM    5  CAE H8M A1204      17.909  20.510   9.601  1.00  0.00    -0.687 A  
HETATM    6  CAR H8M A1204      19.032  20.073  10.314  1.00  0.00    -0.470 A  
HETATM    7  CAS H8M A1204      19.718  20.973  11.152  1.00  0.00    -0.301 A  
HETATM    8  CAV H8M A1204      19.269  22.303  11.276  1.00  0.00    -0.382 A  
HETATM    9 CLA  H8M A1204      21.110  20.447  12.036  1.00  0.00    -0.495 Cl 
BRANCH   6  10
HETATM   10  CAL H8M A1204      19.520  18.602  10.158  1.00  0.00    -0.434 C  
BRANCH  10  11
HETATM   11  CAZ H8M A1204      20.589  18.583   9.079  1.00  0.00    -0.443 C  
HETATM   12  HAN H8M A1204      21.664  16.837  10.995  1.00  0.00     0.000 HD 
HETATM   13  NAM H8M A1204      19.977  18.795   7.766  1.00  0.00    -0.161 NA 
HETATM   14  CAJ H8M A1204      20.961  18.654   6.638  1.00  0.00    -0.277 C  
HETATM   15  HAM H8M A1204      19.176  18.178   7.632  1.00  0.00     0.000 HD 
HETATM   16  CAW H8M A1204      21.344  17.307   9.077  1.00  0.00    -0.183 A  
HETATM   17  CAK H8M A1204      21.403  17.170   6.552  1.00  0.00    -0.480 C  
HETATM   18  CAU H8M A1204      21.736  16.638   7.892  1.00  0.00    -0.487 A  
HETATM   19  CAY H8M A1204      22.508  15.362   8.386  1.00  0.00    -0.676 A  
HETATM   20  CAI H8M A1204      23.139  14.300   7.752  1.00  0.00    -0.648 A  
HETATM   21  CAQ H8M A1204      23.763  13.276   8.529  1.00  0.00    -0.629 A  
HETATM   22  CAC H8M A1204      24.441  12.131   7.854  1.00  0.00    -0.685 C  
HETATM   23  CAG H8M A1204      23.728  13.365   9.974  1.00  0.00    -0.661 A  
HETATM   24  CAH H8M A1204      23.059  14.490  10.578  1.00  0.00    -0.581 A  
HETATM   25  CAX H8M A1204      22.479  15.440   9.785  1.00  0.00    -0.419 A  
HETATM   26  NAN H8M A1204      21.814  16.555  10.026  1.00  0.00    -0.338 NA 
ENDBRANCH  10  11
ENDBRANCH   6  10
BRANCH   8  27
HETATM   27  OAP H8M A1204      19.958  23.213  12.125  1.00  0.00    -0.434 OA 
HETATM   28  CAB H8M A1204      19.388  23.340  13.439  1.00  0.00    -0.364 C  
ENDBRANCH   8  27
ENDBRANCH   2   3
TORSDOF 4
ENDMDL
