MODEL        1
REMARK THIS MODEL IS IDENTICAL TO THE INPUT LIGAND AND NOT FROM DOCKING
REMARK 921   NORMALIZED FREE ENERGY PREDICTED BY IDOCK:   -3.71 KCAL/MOL
REMARK 922        TOTAL FREE ENERGY PREDICTED BY IDOCK:   -4.85 KCAL/MOL
REMARK 923 INTER-LIGAND FREE ENERGY PREDICTED BY IDOCK:   -4.57 KCAL/MOL
REMARK 924 INTRA-LIGAND FREE ENERGY PREDICTED BY IDOCK:   -0.28 KCAL/MOL
REMARK 927      BINDING AFFINITY PREDICTED BY RF-SCORE:    0.00 PKD
ROOT
HETATM    1  C1  RET A1296       6.801  62.071  17.573  1.00  0.00    -0.497 C  
HETATM    2  C2  RET A1296       6.158  62.767  16.343  1.00  0.00    -0.585 C  
HETATM    3  C17 RET A1296       5.754  61.000  18.011  1.00  0.00    -0.684 C  
HETATM    4  C16 RET A1296       6.859  63.153  18.688  1.00  0.00    -0.601 C  
HETATM    5  C3  RET A1296       7.103  63.404  15.364  1.00  0.00    -0.736 C  
HETATM    6  C4  RET A1296       8.234  62.474  14.925  1.00  0.00    -0.773 C  
HETATM    7  C5  RET A1296       8.921  61.732  16.078  1.00  0.00    -0.662 C  
HETATM    8  C6  RET A1296       8.238  61.430  17.292  1.00  0.00    -0.526 C  
HETATM    9  C18 RET A1296      10.363  61.431  15.716  1.00  0.00    -0.828 C  
ENDROOT
BRANCH   8  10
HETATM   10  C7  RET A1296       8.826  60.475  18.292  1.00  0.00    -0.533 C  
HETATM   11  C8  RET A1296       9.599  59.372  18.126  1.00  0.00    -0.609 C  
BRANCH  11  12
HETATM   12  C9  RET A1296       9.935  58.307  19.067  1.00  0.00    -0.577 C  
HETATM   13  C19 RET A1296       9.480  58.474  20.516  1.00  0.00    -0.485 C  
HETATM   14  C10 RET A1296      10.631  57.241  18.534  1.00  0.00    -0.671 C  
BRANCH  14  15
HETATM   15  C11 RET A1296      11.123  56.102  19.299  1.00  0.00    -0.616 C  
HETATM   16  C12 RET A1296      11.590  54.948  18.705  1.00  0.00    -0.156 C  
BRANCH  16  17
HETATM   17  C13 RET A1296      11.119  54.188  17.523  1.00  0.00    -0.496 C  
HETATM   18  C14 RET A1296      11.841  53.049  17.319  1.00  0.00     0.904 C  
HETATM   19  C20 RET A1296       9.947  54.627  16.661  1.00  0.00    -0.913 C  
HETATM   20  C15 RET A1296      11.581  52.002  16.385  1.00  0.00     5.471 C  
ENDBRANCH  16  17
ENDBRANCH  14  15
ENDBRANCH  11  12
ENDBRANCH   8  10
TORSDOF 4
ENDMDL
