REMARK  4 active torsions:
REMARK  status: ('A' for Active; 'I' for Inactive)
REMARK    1  A    between atoms: C6_3  and  C7_10
REMARK    2  A    between atoms: C8_11  and  C9_12
REMARK    3  A    between atoms: C10_13  and  C11_15
REMARK    4  A    between atoms: C12_16  and  C13_17
ROOT
HETATM    1  C1  RET A 401     -27.339  51.198 -29.320  1.00  0.00    -0.010 C
HETATM    2  C17 RET A 401     -28.150  52.421 -29.758  1.00  0.00     0.016 C
HETATM    3  C6  RET A 401     -25.969  51.191 -30.007  1.00  0.00    -0.043 C
HETATM    4  C16 RET A 401     -28.130  49.938 -29.690  1.00  0.00     0.016 C
HETATM    5  C5  RET A 401     -24.852  51.622 -29.397  1.00  0.00    -0.069 C
HETATM    6  C2  RET A 401     -27.174  51.266 -27.797  1.00  0.00     0.011 C
HETATM    7  C18 RET A 401     -23.492  51.651 -30.040  1.00  0.00     0.039 C
HETATM    8  C4  RET A 401     -24.837  52.134 -27.981  1.00  0.00     0.031 C
HETATM    9  C3  RET A 401     -26.213  52.366 -27.377  1.00  0.00     0.005 C
ENDROOT
BRANCH   3  10
HETATM   10  C7  RET A 401     -25.984  50.656 -31.384  1.00  0.00     0.004 C
HETATM   11  C8  RET A 401     -25.315  49.599 -31.844  1.00  0.00     0.003 C
BRANCH  11  12
HETATM   12  C9  RET A 401     -25.348  49.054 -33.186  1.00  0.00    -0.050 C
HETATM   13  C10 RET A 401     -24.672  47.915 -33.452  1.00  0.00     0.003 C
HETATM   14  C19 RET A 401     -26.245  49.715 -34.195  1.00  0.00     0.044 C
BRANCH  13  15
HETATM   15  C11 RET A 401     -24.778  47.131 -34.621  1.00  0.00     0.001 C
HETATM   16  C12 RET A 401     -24.110  46.023 -34.856  1.00  0.00     0.003 C
BRANCH  16  17
HETATM   17  C13 RET A 401     -24.260  45.211 -36.020  1.00  0.00    -0.051 C
HETATM   18  C14 RET A 401     -23.676  43.986 -35.932  1.00  0.00    -0.005 C
HETATM   19  C20 RET A 401     -25.202  45.609 -37.093  1.00  0.00     0.044 C
HETATM   20  C15 RET A 401     -23.650  42.710 -36.460  1.00  0.00     0.009 C
ENDBRANCH  16  17
ENDBRANCH  13  15
ENDBRANCH  11  12
ENDBRANCH   3  10
TORSDOF 4
