REMARK 10 active torsions:
REMARK  status: ('A' for Active; 'I' for Inactive)
REMARK    1  A    between atoms: CAW_10  and  CAZ_11
REMARK    2  A    between atoms: CAZ_11  and  CAP_14
REMARK    3  A    between atoms: CAP_14  and  NAQ_15
REMARK    4  A    between atoms: NAQ_15  and  CAM_17
REMARK    5  A    between atoms: CAM_17  and  CAO_18
REMARK    6  A    between atoms: CAO_18  and  CAV_19
REMARK    7  A    between atoms: CAX_22  and  OAS_25
REMARK    8  A    between atoms: OAS_25  and  CAN_26
REMARK    9  A    between atoms: CAY_24  and  OAR_30
REMARK   10  A    between atoms: CAN_26  and  CAL_27
ROOT
HETATM    1  CAJ 35V A1403       0.578 -21.668 -48.731  1.00  0.00     0.041 A
HETATM    2  CAU 35V A1403      -0.638 -22.100 -48.216  1.00  0.00     0.103 A
HETATM    3  CAT 35V A1403      -0.710 -22.718 -46.972  1.00  0.00     0.102 A
HETATM    4  OAC 35V A1403      -1.808 -21.943 -48.893  1.00  0.00    -0.357 OA
HETATM    5  CAF 35V A1403       0.431 -22.920 -46.213  1.00  0.00     0.035 A
HETATM    6  OAB 35V A1403      -1.939 -23.108 -46.542  1.00  0.00    -0.357 OA
HETATM    7  HAC 35V A1403      -2.639 -22.238 -48.541  1.00  0.00     0.217 HD
HETATM    8  CAH 35V A1403       1.647 -22.490 -46.728  1.00  0.00     0.009 A
HETATM    9  HAB 35V A1403      -1.988 -23.530 -45.692  1.00  0.00     0.217 HD
HETATM   10  CAW 35V A1403       1.724 -21.882 -47.977  1.00  0.00    -0.015 A
ENDROOT
BRANCH  10  11
HETATM   11  CAZ 35V A1403       2.965 -21.461 -48.441  1.00  0.00     0.158 C
HETATM   12  OAD 35V A1403       3.941 -21.369 -47.391  1.00  0.00    -0.386 OA
HETATM   13  HAD 35V A1403       3.592 -20.848 -46.677  1.00  0.00     0.210 HD
BRANCH  11  14
HETATM   14  CAP 35V A1403       3.530 -22.303 -49.595  1.00  0.00     0.117 C
BRANCH  14  15
HETATM   15  NAQ 35V A1403       4.830 -21.660 -49.781  1.00  0.00    -0.313 NA
HETATM   16  HAQ 35V A1403       5.085 -20.949 -49.096  1.00  0.00     0.122 HD
BRANCH  15  17
HETATM   17  CAM 35V A1403       5.811 -21.922 -50.844  1.00  0.00     0.085 C
BRANCH  17  18
HETATM   18  CAO 35V A1403       5.277 -21.645 -52.257  1.00  0.00     0.050 C
BRANCH  18  19
HETATM   19  CAV 35V A1403       6.359 -21.733 -53.138  1.00  0.00    -0.044 A
HETATM   20  CAG 35V A1403       6.248 -22.219 -54.442  1.00  0.00     0.006 A
HETATM   21  CAI 35V A1403       7.369 -22.242 -55.267  1.00  0.00     0.036 A
HETATM   22  CAX 35V A1403       8.587 -21.775 -54.791  1.00  0.00     0.106 A
HETATM   23  CAK 35V A1403       7.584 -21.258 -52.678  1.00  0.00     0.039 A
HETATM   24  CAY 35V A1403       8.693 -21.274 -53.501  1.00  0.00     0.106 A
BRANCH  22  25
HETATM   25  OAS 35V A1403       9.729 -21.770 -55.531  1.00  0.00    -0.341 OA
BRANCH  25  26
HETATM   26  CAN 35V A1403       9.485 -22.309 -56.833  1.00  0.00     0.178 C
BRANCH  26  27
HETATM   27  CAL 35V A1403      10.745 -23.022 -57.339  1.00  0.00     0.094 C
HETATM   28  SAE 35V A1403      12.179 -21.892 -57.427  1.00  0.00    -0.176 SA
HETATM   29  HAE 35V A1403      13.321 -22.538 -57.886  1.00  0.00     0.102 H
ENDBRANCH  26  27
ENDBRANCH  25  26
ENDBRANCH  22  25
BRANCH  24  30
HETATM   30  OAR 35V A1403       9.921 -20.853 -53.097  1.00  0.00    -0.345 OA
HETATM   31  CAA 35V A1403       9.925 -20.405 -51.735  1.00  0.00     0.202 C
ENDBRANCH  24  30
ENDBRANCH  18  19
ENDBRANCH  17  18
ENDBRANCH  15  17
ENDBRANCH  14  15
ENDBRANCH  11  14
ENDBRANCH  10  11
TORSDOF 10
