REMARK  4 active torsions:
REMARK  status: ('A' for Active; 'I' for Inactive)
REMARK    1  A    between atoms: C6_16  and  C16_19
REMARK    2  A    between atoms: N3_21  and  C17_23
REMARK    3  A    between atoms: C19_28  and  C27_40
REMARK    4  A    between atoms: C27_40  and  C28_41
ROOT
HETATM    1  C1  ERM A2001      23.443  14.527   4.822  1.00  0.00     0.061 A
HETATM    2  N1  ERM A2001      24.198  13.556   5.387  1.00  0.00    -0.264 NA
HETATM    3  H1  ERM A2001      24.667  12.812   4.870  1.00  0.00     0.133 HD
HETATM    4  C13 ERM A2001      24.248  13.712   6.779  1.00  0.00     0.028 A
HETATM    5  C12 ERM A2001      24.845  13.050   7.801  1.00  0.00     0.020 A
HETATM    6  C11 ERM A2001      24.633  13.531   9.134  1.00  0.00     0.002 A
HETATM    7  C10 ERM A2001      23.821  14.673   9.347  1.00  0.00     0.009 A
HETATM    8  C9  ERM A2001      23.206  15.363   8.294  1.00  0.00    -0.012 A
HETATM    9  C14 ERM A2001      23.433  14.833   6.998  1.00  0.00     0.005 A
HETATM   10  C2  ERM A2001      22.941  15.353   5.782  1.00  0.00    -0.026 A
HETATM   11  C3  ERM A2001      22.027  16.545   5.777  1.00  0.00     0.060 C
HETATM   12  C4  ERM A2001      22.257  17.419   7.063  1.00  0.00     0.091 C
HETATM   13  N2  ERM A2001      21.200  18.505   7.119  1.00  0.00    -0.297 NA
HETATM   14  C15 ERM A2001      21.480  19.656   6.214  1.00  0.00     0.105 C
HETATM   15  C5  ERM A2001      20.910  19.087   8.477  1.00  0.00     0.101 C
HETATM   16  C6  ERM A2001      20.596  18.011   9.500  1.00  0.00     0.109 C
HETATM   17  C8  ERM A2001      22.307  16.589   8.351  1.00  0.00    -0.025 C
HETATM   18  C7  ERM A2001      21.432  16.761   9.339  1.00  0.00    -0.008 C
ENDROOT
BRANCH  16  19
HETATM   19  C16 ERM A2001      20.714  18.621  10.929  1.00  0.00     0.211 C
HETATM   20  O1  ERM A2001      21.825  18.775  11.405  1.00  0.00    -0.279 OA
HETATM   21  N3  ERM A2001      19.566  18.969  11.569  1.00  0.00    -0.222 N
HETATM   22  H3  ERM A2001      18.687  18.764  11.094  1.00  0.00     0.134 HD
BRANCH  21  23
HETATM   23  C17 ERM A2001      19.482  19.617  12.891  1.00  0.00     0.202 C
HETATM   24  C26 ERM A2001      17.997  19.623  13.245  1.00  0.00     0.070 C
HETATM   25  C18 ERM A2001      20.316  18.935  13.956  1.00  0.00     0.255 C
HETATM   26  O3  ERM A2001      20.125  17.834  14.423  1.00  0.00    -0.274 OA
HETATM   27  N4  ERM A2001      21.310  19.790  14.237  1.00  0.00    -0.175 N
HETATM   28  C19 ERM A2001      22.346  19.519  15.212  1.00  0.00     0.156 C
HETATM   29  C20 ERM A2001      22.747  20.825  15.923  1.00  0.00     0.222 C
HETATM   30  C24 ERM A2001      21.254  22.226  14.501  1.00  0.00     0.141 C
HETATM   31  H5  ERM A2001      23.198  21.248  13.106  1.00  0.00     0.214 HD
HETATM   32  O4  ERM A2001      23.568  20.788  16.855  1.00  0.00    -0.278 OA
HETATM   33  N5  ERM A2001      22.225  21.994  15.554  1.00  0.00    -0.233 N
HETATM   34  C21 ERM A2001      22.511  23.314  16.110  1.00  0.00     0.093 C
HETATM   35  O5  ERM A2001      22.378  21.154  12.635  1.00  0.00    -0.351 OA
HETATM   36  O2  ERM A2001      20.068  20.921  12.810  1.00  0.00    -0.305 OA
HETATM   37  C22 ERM A2001      21.807  24.351  15.264  1.00  0.00     0.018 C
HETATM   38  C25 ERM A2001      21.302  21.063  13.519  1.00  0.00     0.255 C
HETATM   39  C23 ERM A2001      21.484  23.632  13.930  1.00  0.00     0.027 C
BRANCH  28  40
HETATM   40  C27 ERM A2001      23.515  18.804  14.566  1.00  0.00     0.063 C
BRANCH  40  41
HETATM   41  C28 ERM A2001      24.425  18.071  15.538  1.00  0.00    -0.045 A
HETATM   42  C31 ERM A2001      26.147  16.703  17.305  1.00  0.00     0.000 A
HETATM   43  C33 ERM A2001      25.791  18.400  15.595  1.00  0.00     0.004 A
HETATM   44  C30 ERM A2001      24.787  16.353  17.239  1.00  0.00     0.000 A
HETATM   45  C29 ERM A2001      23.938  17.027  16.345  1.00  0.00     0.004 A
HETATM   46  C32 ERM A2001      26.649  17.724  16.483  1.00  0.00     0.000 A
ENDBRANCH  40  41
ENDBRANCH  28  40
ENDBRANCH  21  23
ENDBRANCH  16  19
TORSDOF 4
