REMARK  3 active torsions:
REMARK  status: ('A' for Active; 'I' for Inactive)
REMARK    1  A    between atoms: C5'_1  and  C4'_5
REMARK    2  A    between atoms: N5'_2  and  C51_26
REMARK    3  A    between atoms: C1'_8  and  N9_14
ROOT
HETATM    1  C5' NEC A 400      84.800  54.281  72.401  1.00  0.00     0.232 C
HETATM    2  N5' NEC A 400      84.225  55.307  71.766  1.00  0.00    -0.256 N
HETATM    3  O5' NEC A 400      85.949  53.923  72.179  1.00  0.00    -0.277 OA
HETATM    4  H5' NEC A 400      83.260  55.547  71.994  1.00  0.00     0.130 HD
ENDROOT
BRANCH   1   5
HETATM    5  C4' NEC A 400      83.955  53.551  73.415  1.00  0.00     0.233 C
HETATM    6  H2' NEC A 400      84.105  51.965  76.950  1.00  0.00     0.210 HD
HETATM    7  O4' NEC A 400      83.619  52.259  72.902  1.00  0.00    -0.343 OA
HETATM    8  C1' NEC A 400      84.041  51.206  73.776  1.00  0.00     0.232 C
HETATM    9  O3' NEC A 400      84.023  54.125  75.776  1.00  0.00    -0.386 OA
HETATM   10  C2' NEC A 400      84.598  51.858  75.040  1.00  0.00     0.190 C
HETATM   11  H3' NEC A 400      84.463  54.001  76.609  1.00  0.00     0.210 HD
HETATM   12  O2' NEC A 400      83.759  51.560  76.164  1.00  0.00    -0.385 OA
HETATM   13  C3' NEC A 400      84.662  53.351  74.754  1.00  0.00     0.184 C
BRANCH   8  14
HETATM   14  N9  NEC A 400      85.054  50.334  73.111  1.00  0.00    -0.187 NA
HETATM   15  C8  NEC A 400      85.625  50.532  71.901  1.00  0.00     0.177 A
HETATM   16  N7  NEC A 400      86.500  49.534  71.609  1.00  0.00    -0.237 NA
HETATM   17  C5  NEC A 400      86.499  48.671  72.637  1.00  0.00     0.138 A
HETATM   18  C6  NEC A 400      87.193  47.400  72.977  1.00  0.00     0.134 A
HETATM   19  N6  NEC A 400      88.088  46.843  72.125  1.00  0.00    -0.285 NA
HETATM   20  N1  NEC A 400      86.899  46.818  74.167  1.00  0.00    -0.222 NA
HETATM   21  H61 NEC A 400      88.564  45.971  72.358  1.00  0.00     0.125 HD
HETATM   22  C2  NEC A 400      86.009  47.356  75.032  1.00  0.00     0.224 A
HETATM   23  H62 NEC A 400      88.289  47.303  71.237  1.00  0.00     0.125 HD
HETATM   24  N3  NEC A 400      85.347  48.508  74.781  1.00  0.00    -0.221 NA
HETATM   25  C4  NEC A 400      85.541  49.200  73.625  1.00  0.00     0.147 A
ENDBRANCH   8  14
ENDBRANCH   1   5
BRANCH   2  26
HETATM   26  C51 NEC A 400      84.923  56.092  70.764  1.00  0.00     0.086 C
HETATM   27  C52 NEC A 400      84.097  57.281  70.329  1.00  0.00     0.020 C
ENDBRANCH   2  26
TORSDOF 3
