MODEL        1
REMARK THIS MODEL IS IDENTICAL TO THE INPUT LIGAND AND NOT FROM DOCKING
REMARK 921   NORMALIZED FREE ENERGY PREDICTED BY IDOCK:   -6.36 KCAL/MOL
REMARK 922        TOTAL FREE ENERGY PREDICTED BY IDOCK:   -7.61 KCAL/MOL
REMARK 923 INTER-LIGAND FREE ENERGY PREDICTED BY IDOCK:   -7.48 KCAL/MOL
REMARK 924 INTRA-LIGAND FREE ENERGY PREDICTED BY IDOCK:   -0.14 KCAL/MOL
REMARK 927      BINDING AFFINITY PREDICTED BY RF-SCORE:    0.00 PKD
ROOT
HETATM    1  C1  ALE A1402      -1.597 -12.703 -48.312  1.00  0.00    -0.574 A  
HETATM    2  C2  ALE A1402      -0.421 -12.868 -49.038  1.00  0.00    -0.680 A  
HETATM    3  C6  ALE A1402      -1.563 -12.110 -47.052  1.00  0.00    -0.800 A  
HETATM    4  H2  ALE A1402       2.050 -11.044 -45.916  1.00  0.00     0.000 HD 
HETATM    5  C3  ALE A1402       0.781 -12.434 -48.492  1.00  0.00    -0.483 A  
HETATM    6  C5  ALE A1402      -0.358 -11.677 -46.506  1.00  0.00    -0.905 A  
HETATM    7  O2  ALE A1402       2.029 -11.448 -46.775  1.00  0.00    -0.603 OA 
HETATM    8  H1  ALE A1402       2.791 -12.264 -48.769  1.00  0.00     0.000 HD 
HETATM    9  C4  ALE A1402       0.812 -11.844 -47.237  1.00  0.00    -0.527 A  
HETATM   10  O1  ALE A1402       1.969 -12.561 -49.142  1.00  0.00    -0.755 OA 
ENDROOT
BRANCH   1  11
HETATM   11  C7  ALE A1402      -2.805 -13.135 -48.853  1.00  0.00    -0.337 C  
HETATM   12  H3  ALE A1402      -4.653 -13.414 -48.223  1.00  0.00     0.000 HD 
HETATM   13  O3  ALE A1402      -3.829 -13.119 -47.854  1.00  0.00    -0.410 OA 
BRANCH  11  14
HETATM   14  C8  ALE A1402      -3.207 -12.227 -50.017  1.00  0.00    -0.335 C  
BRANCH  14  15
HETATM   15  N1  ALE A1402      -4.479 -12.665 -50.609  1.00  0.00    -0.838 NA 
HETATM   16  C9  ALE A1402      -4.834 -11.777 -51.725  1.00  0.00    -0.230 C  
HETATM   17  H1  ALE A1402      -4.456 -13.645 -50.889  1.00  0.00     0.000 HD 
ENDBRANCH  14  15
ENDBRANCH  11  14
ENDBRANCH   1  11
TORSDOF 3
ENDMDL
