REMARK  6 active torsions:
REMARK  status: ('A' for Active; 'I' for Inactive)
REMARK    1  A    between atoms: CAD_2  and  CAA_3
REMARK    2  A    between atoms: CAB_4  and  CAC_5
REMARK    3  A    between atoms: CAL_8  and  CAO_11
REMARK    4  A    between atoms: CAR_14  and  CBC_17
REMARK    5  A    between atoms: NBD_18  and  NBF_21
REMARK    6  A    between atoms: NAP_15  and  CAT_27
ROOT
HETATM    1  CAE ZDG A2001      38.523  35.472 318.733  1.00  0.00     0.017 C
HETATM    2  CAD ZDG A2001      38.396  34.520 317.542  1.00  0.00     0.086 C
ENDROOT
BRANCH   2   3
HETATM    3  CAA ZDG A2001      39.321  33.322 317.752  1.00  0.00    -0.097 C
HETATM    4  CAB ZDG A2001      39.986  32.350 317.916  1.00  0.00    -0.066 C
BRANCH   4   5
HETATM    5  CAC ZDG A2001      40.899  31.144 318.140  1.00  0.00     0.025 A
HETATM    6  CAN ZDG A2001      40.495  29.873 317.767  1.00  0.00     0.017 A
HETATM    7  CAM ZDG A2001      41.333  28.790 317.983  1.00  0.00     0.011 A
HETATM    8  CAL ZDG A2001      42.574  28.980 318.571  1.00  0.00    -0.004 A
HETATM    9  CAJ ZDG A2001      42.136  31.331 318.729  1.00  0.00     0.017 A
HETATM   10  CAK ZDG A2001      42.974  30.250 318.943  1.00  0.00     0.011 A
BRANCH   8  11
HETATM   11  CAO ZDG A2001      43.502  27.787 318.810  1.00  0.00     0.058 A
HETATM   12  CAS ZDG A2001      43.682  27.126 319.993  1.00  0.00     0.002 A
HETATM   13  CBB ZDG A2001      42.989  27.464 321.309  1.00  0.00     0.048 C
HETATM   14  CAR ZDG A2001      44.589  26.121 319.784  1.00  0.00     0.143 A
HETATM   15  NAP ZDG A2001      44.272  27.204 317.897  1.00  0.00    -0.135 NA
HETATM   16  NAQ ZDG A2001      44.952  26.165 318.510  1.00  0.00    -0.183 NA
BRANCH  14  17
HETATM   17  CBC ZDG A2001      45.110  25.114 320.806  1.00  0.00     0.265 C
HETATM   18  NBD ZDG A2001      45.051  23.694 320.486  1.00  0.00    -0.187 N
HETATM   19  OBE ZDG A2001      45.554  25.486 321.839  1.00  0.00    -0.271 OA
HETATM   20  HBD ZDG A2001      44.663  23.404 319.588  1.00  0.00     0.150 HD
BRANCH  18  21
HETATM   21  NBF ZDG A2001      45.471  22.799 321.298  1.00  0.00    -0.236 NA
HETATM   22  CBK ZDG A2001      46.563  22.265 320.772  1.00  0.00     0.102 C
HETATM   23  CBJ ZDG A2001      47.221  21.152 321.575  1.00  0.00     0.017 C
HETATM   24  CBG ZDG A2001      44.504  21.906 321.461  1.00  0.00     0.102 C
HETATM   25  CBH ZDG A2001      44.877  20.729 322.363  1.00  0.00     0.017 C
HETATM   26  CBI ZDG A2001      46.239  20.104 322.079  1.00  0.00     0.003 C
ENDBRANCH  18  21
ENDBRANCH  14  17
BRANCH  15  27
HETATM   27  CAT ZDG A2001      44.405  27.578 316.503  1.00  0.00     0.064 A
HETATM   28  CAV ZDG A2001      43.629  27.502 314.232  1.00  0.00     0.022 A
HETATM   29  CAU ZDG A2001      43.483  27.137 315.563  1.00  0.00     0.025 A
HETATM   30  CAX ZDG A2001      45.608  28.736 314.781  1.00  0.00     0.041 A
HETATM   31 CLB  ZDG A2001      44.882  28.769 312.129  1.00  0.00    -0.083 Cl
HETATM   32  CAW ZDG A2001      44.691  28.301 313.841  1.00  0.00     0.042 A
HETATM   33  CAY ZDG A2001      45.468  28.377 316.108  1.00  0.00     0.062 A
HETATM   34 CLA  ZDG A2001      46.670  28.954 317.297  1.00  0.00    -0.082 Cl
ENDBRANCH  15  27
ENDBRANCH   8  11
ENDBRANCH   4   5
ENDBRANCH   2   3
TORSDOF 6
