MODEL        1
REMARK THIS MODEL IS IDENTICAL TO THE INPUT LIGAND AND NOT FROM DOCKING
REMARK 921   NORMALIZED FREE ENERGY PREDICTED BY IDOCK:   -8.54 KCAL/MOL
REMARK 922        TOTAL FREE ENERGY PREDICTED BY IDOCK:  -11.43 KCAL/MOL
REMARK 923 INTER-LIGAND FREE ENERGY PREDICTED BY IDOCK:  -11.04 KCAL/MOL
REMARK 924 INTRA-LIGAND FREE ENERGY PREDICTED BY IDOCK:   -0.40 KCAL/MOL
REMARK 927      BINDING AFFINITY PREDICTED BY RF-SCORE:    0.00 PKD
ROOT
HETATM    1  O2  P32 A 400      15.721  18.164  -8.348  1.00  0.00    -0.894 OA 
HETATM    2  H2  P32 A 400      15.018  18.649  -7.932  1.00  0.00     0.000 HD 
HETATM    3  C10 P32 A 400      16.736  19.134  -8.683  1.00  0.00    -0.519 C  
ENDROOT
BRANCH   3   4
HETATM    4  C11 P32 A 400      17.255  19.863  -7.462  1.00  0.00    -0.384 C  
BRANCH   4   5
HETATM    5  N2  P32 A 400      16.132  20.549  -6.788  1.00  0.00    -0.786 NA 
HETATM    6  H2  P32 A 400      15.377  19.902  -6.558  1.00  0.00     0.000 HD 
HETATM    7  C14 P32 A 400      17.628  22.343  -5.993  1.00  0.00    -0.393 C  
HETATM    8  C12 P32 A 400      16.614  21.293  -5.579  1.00  0.00    -0.387 C  
HETATM    9  C13 P32 A 400      15.527  22.079  -4.900  1.00  0.00    -0.497 C  
HETATM   10  C15 P32 A 400      17.175  20.363  -4.490  1.00  0.00    -0.419 C  
ENDBRANCH   4   5
ENDBRANCH   3   4
BRANCH   3  11
HETATM   11  C9  P32 A 400      17.879  18.346  -9.360  1.00  0.00    -0.370 C  
BRANCH  11  12
HETATM   12  O1  P32 A 400      18.954  19.198  -9.729  1.00  0.00    -0.385 OA 
BRANCH  12  13
HETATM   13  C4  P32 A 400      19.959  18.490 -10.337  1.00  0.00    -0.477 A  
HETATM   14  C5  P32 A 400      19.854  17.135 -10.638  1.00  0.00    -0.752 A  
HETATM   15  C6  P32 A 400      20.921  16.507 -11.253  1.00  0.00    -0.519 A  
HETATM   16  C7  P32 A 400      22.048  17.245 -11.561  1.00  0.00    -0.664 A  
HETATM   17  C8  P32 A 400      22.101  18.540 -11.250  1.00  0.00    -0.415 A  
HETATM   18  C3  P32 A 400      21.074  19.160 -10.643  1.00  0.00    -0.602 A  
HETATM   19  C2  P32 A 400      21.422  20.437 -10.463  1.00  0.00    -0.562 A  
HETATM   20  C1  P32 A 400      22.644  20.585 -10.965  1.00  0.00    -0.416 A  
HETATM   21  N1  P32 A 400      23.071  19.429 -11.448  1.00  0.00    -0.644 NA 
HETATM   22  C16 P32 A 400      23.409  21.800 -10.979  1.00  0.00    -0.350 C  
HETATM   23  N3  P32 A 400      24.014  22.744 -10.983  1.00  0.00    -0.599 NA 
HETATM   24  H1  P32 A 400      23.974  19.253 -11.889  1.00  0.00     0.000 HD 
ENDBRANCH  12  13
ENDBRANCH  11  12
ENDBRANCH   3  11
TORSDOF 5
ENDMDL
