REMARK  5 active torsions:
REMARK  status: ('A' for Active; 'I' for Inactive)
REMARK    1  A    between atoms: C7_2  and  C8_9
REMARK    2  A    between atoms: C8_9  and  C9_10
REMARK    3  A    between atoms: C9_10  and  N10_11
REMARK    4  A    between atoms: N10_11  and  C11_13
REMARK    5  A    between atoms: C20_17  and  C21_25
ROOT
HETATM    1  C1  ZMA A1201       1.656 103.752  56.472  1.00  0.00     0.006 A
HETATM    2  C7  ZMA A1201       0.720 102.818  56.020  1.00  0.00    -0.046 A
HETATM    3  O4  ZMA A1201      -0.004 106.870  55.590  1.00  0.00    -0.360 OA
HETATM    4  C6  ZMA A1201      -0.459 103.232  55.394  1.00  0.00     0.006 A
HETATM    5  C2  ZMA A1201       1.420 105.116  56.336  1.00  0.00     0.033 A
HETATM    6  C5  ZMA A1201      -0.706 104.594  55.257  1.00  0.00     0.033 A
HETATM    7  H4  ZMA A1201      -0.811 107.152  55.175  1.00  0.00     0.217 HD
HETATM    8  C3  ZMA A1201       0.232 105.531  55.725  1.00  0.00     0.073 A
ENDROOT
BRANCH   2   9
HETATM    9  C8  ZMA A1201       1.054 101.351  56.150  1.00  0.00     0.050 C
BRANCH   9  10
HETATM   10  C9  ZMA A1201       1.916 101.110  54.921  1.00  0.00     0.094 C
BRANCH  10  11
HETATM   11  N10 ZMA A1201       2.322  99.748  54.734  1.00  0.00    -0.256 NA
HETATM   12  H10 ZMA A1201       3.228  99.431  55.080  1.00  0.00     0.131 HD
BRANCH  11  13
HETATM   13  C11 ZMA A1201       1.499  98.887  54.097  1.00  0.00     0.207 C
HETATM   14  N12 ZMA A1201       1.867  97.609  53.941  1.00  0.00    -0.185 NA
HETATM   15  C18 ZMA A1201       1.000  96.796  53.291  1.00  0.00     0.236 A
HETATM   16  N19 ZMA A1201       1.129  95.473  53.001  1.00  0.00    -0.192 NA
HETATM   17  C20 ZMA A1201      -0.052  95.197  52.366  1.00  0.00     0.201 A
HETATM   18  N17 ZMA A1201      -0.937  96.219  52.238  1.00  0.00    -0.161 NA
HETATM   19 2H15 ZMA A1201      -1.989  99.983  52.725  1.00  0.00     0.126 HD
HETATM   20 1H15 ZMA A1201      -2.398  98.370  52.114  1.00  0.00     0.126 HD
HETATM   21  N16 ZMA A1201      -0.178  97.230  52.834  1.00  0.00    -0.072 NA
HETATM   22  N15 ZMA A1201      -1.749  99.002  52.583  1.00  0.00    -0.275 NA
HETATM   23  C14 ZMA A1201      -0.556  98.509  53.016  1.00  0.00     0.184 C
HETATM   24  N13 ZMA A1201       0.305  99.347  53.638  1.00  0.00    -0.192 NA
BRANCH  17  25
HETATM   25  C21 ZMA A1201      -0.442  93.849  51.873  1.00  0.00     0.128 A
HETATM   26  C23 ZMA A1201      -0.495  91.766  51.286  1.00  0.00     0.028 A
HETATM   27  C22 ZMA A1201       0.385  92.754  51.755  1.00  0.00     0.039 A
HETATM   28  O25 ZMA A1201      -1.734  93.612  51.547  1.00  0.00    -0.313 OA
HETATM   29  C24 ZMA A1201      -1.779  92.288  51.152  1.00  0.00     0.136 A
ENDBRANCH  17  25
ENDBRANCH  11  13
ENDBRANCH  10  11
ENDBRANCH   9  10
ENDBRANCH   2   9
TORSDOF 5
