REMARK  5 active torsions:
REMARK  status: ('A' for Active; 'I' for Inactive)
REMARK    1  A    between atoms: C03_4  and  C12_12
REMARK    2  A    between atoms: C12_12  and  C13_13
REMARK    3  A    between atoms: C13_13  and  N14_14
REMARK    4  A    between atoms: C18_18  and  C26_21
REMARK    5  A    between atoms: C18_18  and  C19_28
ROOT
HETATM    1  C10 E2J A1201      39.372  36.092  61.609  1.00  0.00     0.159 C
HETATM    2  N11 E2J A1201      38.390  36.423  60.816  1.00  0.00    -0.232 NA
HETATM    3  C02 E2J A1201      37.816  35.532  60.025  1.00  0.00     0.048 C
HETATM    4  C03 E2J A1201      38.274  34.229  60.050  1.00  0.00     0.034 C
HETATM    5  C01 E2J A1201      36.683  35.965  59.133  1.00  0.00     0.066 C
HETATM    6  C08 E2J A1201      41.387  35.688  63.316  1.00  0.00     0.061 C
HETATM    7  C04 E2J A1201      39.327  33.877  60.895  1.00  0.00     0.242 C
HETATM    8  N06 E2J A1201      39.895  34.829  61.701  1.00  0.00    -0.164 N
HETATM    9  C07 E2J A1201      40.931  34.664  62.592  1.00  0.00     0.078 C
HETATM   10  O05 E2J A1201      39.731  32.723  60.911  1.00  0.00    -0.273 OA
HETATM   11  S09 E2J A1201      40.338  37.028  62.769  1.00  0.00    -0.064 SA
ENDROOT
BRANCH   4  12
HETATM   12  C12 E2J A1201      37.658  33.183  59.160  1.00  0.00     0.057 C
BRANCH  12  13
HETATM   13  C13 E2J A1201      38.532  33.077  57.911  1.00  0.00     0.089 C
BRANCH  13  14
HETATM   14  N14 E2J A1201      37.959  32.097  56.983  1.00  0.00    -0.301 NA
HETATM   15  C16 E2J A1201      37.717  31.434  54.636  1.00  0.00     0.047 C
HETATM   16  C15 E2J A1201      38.440  32.363  55.619  1.00  0.00     0.089 C
HETATM   17  C17 E2J A1201      37.932  30.008  55.107  1.00  0.00    -0.059 C
HETATM   18  C18 E2J A1201      38.463  29.023  54.352  1.00  0.00    -0.011 C
HETATM   19  C33 E2J A1201      37.583  29.742  56.557  1.00  0.00     0.047 C
HETATM   20  C34 E2J A1201      38.358  30.749  57.408  1.00  0.00     0.089 C
BRANCH  18  21
HETATM   21  C26 E2J A1201      38.982  29.200  52.965  1.00  0.00    -0.017 A
HETATM   22  C27 E2J A1201      38.475  28.393  51.947  1.00  0.00     0.011 A
HETATM   23  C31 E2J A1201      39.995  30.113  52.664  1.00  0.00     0.011 A
HETATM   24  C28 E2J A1201      38.951  28.514  50.657  1.00  0.00     0.039 A
HETATM   25  C30 E2J A1201      40.463  30.233  51.371  1.00  0.00     0.039 A
HETATM   26  F32 E2J A1201      40.405  29.550  49.099  1.00  0.00    -0.205 F
HETATM   27  C29 E2J A1201      39.944  29.434  50.364  1.00  0.00     0.123 A
ENDBRANCH  18  21
BRANCH  18  28
HETATM   28  C19 E2J A1201      38.551  27.657  54.936  1.00  0.00    -0.017 A
HETATM   29  F25 E2J A1201      38.747  23.857  56.524  1.00  0.00    -0.205 F
HETATM   30  C21 E2J A1201      39.743  25.984  56.183  1.00  0.00     0.039 A
HETATM   31  C23 E2J A1201      37.565  25.491  55.290  1.00  0.00     0.039 A
HETATM   32  C20 E2J A1201      39.683  27.256  55.651  1.00  0.00     0.011 A
HETATM   33  C22 E2J A1201      38.687  25.101  56.003  1.00  0.00     0.123 A
HETATM   34  C24 E2J A1201      37.496  26.761  54.755  1.00  0.00     0.011 A
ENDBRANCH  18  28
ENDBRANCH  13  14
ENDBRANCH  12  13
ENDBRANCH   4  12
TORSDOF 5
