REMARK  9 active torsions:
REMARK  status: ('A' for Active; 'I' for Inactive)
REMARK    1  A    between atoms: N1_1  and  C6_13
REMARK    2  A    between atoms: C6_13  and  C7_14
REMARK    3  A    between atoms: C2_3  and  C3_32
REMARK    4  A    between atoms: C10_17  and  C11_20
REMARK    5  A    between atoms: C22_9  and  N6_34
REMARK    6  A    between atoms: N6_34  and  C29_37
REMARK    7  A    between atoms: C12_24  and  C13_26
REMARK    8  A    between atoms: C29_37  and  C30_38
REMARK    9  A    between atoms: C24_36  and  C25_44
ROOT
HETATM    1  N1  8ES A1501      77.243  -2.606  37.295  1.00  0.00     0.207 NA
HETATM    2  C   8ES A1501      79.222  -3.781  38.220  1.00  0.00     0.060 A
HETATM    3  C2  8ES A1501      76.557  -3.870  37.350  1.00  0.00     0.252 A
HETATM    4  N   8ES A1501      77.147  -5.022  37.784  1.00  0.00    -0.225 NA
HETATM    5  C5  8ES A1501      78.551  -2.538  37.749  1.00  0.00     0.296 A
HETATM    6  C23 8ES A1501      80.529  -3.753  38.635  1.00  0.00     0.034 A
HETATM    7  O   8ES A1501      79.286  -1.339  37.719  1.00  0.00    -0.338 OA
HETATM    8  C1  8ES A1501      78.480  -4.987  38.230  1.00  0.00     0.077 A
HETATM    9  C22 8ES A1501      81.168  -4.918  39.074  1.00  0.00     0.027 A
HETATM   10  H   8ES A1501      80.182  -1.292  38.030  1.00  0.00     0.219 HD
HETATM   11  C20 8ES A1501      79.078  -6.159  38.667  1.00  0.00     0.030 A
HETATM   12  C21 8ES A1501      80.422  -6.124  39.085  1.00  0.00     0.022 A
ENDROOT
BRANCH   1  13
HETATM   13  C6  8ES A1501      76.606  -1.408  36.747  1.00  0.00     0.319 C
BRANCH  13  14
HETATM   14  C7  8ES A1501      77.257  -0.983  35.418  1.00  0.00    -0.017 A
HETATM   15  C9  8ES A1501      77.924   0.780  33.817  1.00  0.00     0.009 A
HETATM   16  C19 8ES A1501      77.878  -1.998  34.434  1.00  0.00     0.006 A
HETATM   17  C10 8ES A1501      78.457  -0.076  32.962  1.00  0.00    -0.017 A
HETATM   18  C8  8ES A1501      77.275   0.301  35.115  1.00  0.00     0.006 A
HETATM   19  C18 8ES A1501      78.425  -1.580  33.296  1.00  0.00     0.009 A
BRANCH  17  20
HETATM   20  C11 8ES A1501      79.094   0.474  31.672  1.00  0.00    -0.008 A
HETATM   21  C17 8ES A1501      78.337   1.307  30.842  1.00  0.00     0.009 A
HETATM   22  C16 8ES A1501      78.900   1.862  29.694  1.00  0.00     0.001 A
HETATM   23  C14 8ES A1501      80.993   0.786  30.190  1.00  0.00     0.012 A
HETATM   24  C12 8ES A1501      80.440   0.245  31.351  1.00  0.00     0.023 A
HETATM   25  C15 8ES A1501      80.228   1.597  29.362  1.00  0.00     0.001 A
BRANCH  24  26
HETATM   26  C13 8ES A1501      81.315  -0.654  32.217  1.00  0.00     0.159 A
HETATM   27  N5  8ES A1501      81.611  -0.478  33.592  1.00  0.00    -0.115 NA
HETATM   28  N2  8ES A1501      81.916  -1.787  31.823  1.00  0.00    -0.142 NA
HETATM   29  N4  8ES A1501      82.401  -1.492  34.034  1.00  0.00    -0.028 NA
HETATM   30  N3  8ES A1501      82.588  -2.298  32.946  1.00  0.00    -0.070 NA
HETATM   31  H2  8ES A1501      81.890  -2.198  30.890  1.00  0.00     0.158 HD
ENDBRANCH  24  26
ENDBRANCH  17  20
ENDBRANCH  13  14
ENDBRANCH   1  13
BRANCH   3  32
HETATM   32  C3  8ES A1501      75.102  -4.009  36.881  1.00  0.00     0.082 C
HETATM   33  C4  8ES A1501      74.145  -3.788  38.050  1.00  0.00     0.012 C
ENDBRANCH   3  32
BRANCH   9  34
HETATM   34  N6  8ES A1501      82.553  -4.867  39.505  1.00  0.00    -0.206 N
HETATM   35  O1  8ES A1501      84.765  -5.168  38.985  1.00  0.00    -0.273 OA
HETATM   36  C24 8ES A1501      83.645  -5.232  38.601  1.00  0.00     0.241 C
BRANCH  34  37
HETATM   37  C29 8ES A1501      82.843  -4.417  40.863  1.00  0.00     0.133 C
BRANCH  37  38
HETATM   38  C30 8ES A1501      82.316  -5.453  41.854  1.00  0.00    -0.033 A
HETATM   39  C31 8ES A1501      81.273  -5.181  42.616  1.00  0.00     0.005 A
HETATM   40  C32 8ES A1501      80.752  -6.234  43.603  1.00  0.00     0.000 A
HETATM   41  C34 8ES A1501      82.536  -7.733  42.779  1.00  0.00     0.000 A
HETATM   42  C33 8ES A1501      81.331  -7.418  43.673  1.00  0.00     0.000 A
HETATM   43  C35 8ES A1501      82.985  -6.827  41.930  1.00  0.00     0.005 A
ENDBRANCH  37  38
ENDBRANCH  34  37
BRANCH  36  44
HETATM   44  C25 8ES A1501      83.427  -5.697  37.155  1.00  0.00     0.044 C
HETATM   45  C28 8ES A1501      83.605  -6.832  34.857  1.00  0.00     0.074 C
HETATM   46  C27 8ES A1501      82.595  -5.817  34.853  1.00  0.00     0.016 C
HETATM   47  S   8ES A1501      84.362  -6.917  36.396  1.00  0.00    -0.125 SA
HETATM   48  C26 8ES A1501      82.504  -5.138  36.210  1.00  0.00     0.048 C
ENDBRANCH  36  44
ENDBRANCH   9  34
TORSDOF 9
