REMARK  5 active torsions:
REMARK  status: ('A' for Active; 'I' for Inactive)
REMARK    1  A    between atoms: C7_8  and  C8_9
REMARK    2  A    between atoms: C8_9  and  C9_10
REMARK    3  A    between atoms: C9_10  and  N10_11
REMARK    4  A    between atoms: N10_11  and  C11_13
REMARK    5  A    between atoms: C20_21  and  C21_25
ROOT
HETATM    1  C1  ZMA A1201      21.783 -13.679  15.960  1.00  0.00     0.006 A
HETATM    2  C2  ZMA A1201      21.360 -15.003  15.990  1.00  0.00     0.033 A
HETATM    3  C3  ZMA A1201      20.046 -15.320  15.666  1.00  0.00     0.073 A
HETATM    4  O4  ZMA A1201      19.632 -16.618  15.695  1.00  0.00    -0.360 OA
HETATM    5  C5  ZMA A1201      19.155 -14.314  15.311  1.00  0.00     0.033 A
HETATM    6  C6  ZMA A1201      19.578 -12.990  15.282  1.00  0.00     0.006 A
HETATM    7  H4  ZMA A1201      18.734 -16.835  15.474  1.00  0.00     0.217 HD
HETATM    8  C7  ZMA A1201      20.892 -12.673  15.606  1.00  0.00    -0.046 A
ENDROOT
BRANCH   8   9
HETATM    9  C8  ZMA A1201      21.351 -11.233  15.574  1.00  0.00     0.050 C
BRANCH   9  10
HETATM   10  C9  ZMA A1201      22.296 -10.975  16.741  1.00  0.00     0.094 C
BRANCH  10  11
HETATM   11  N10 ZMA A1201      22.622  -9.569  16.875  1.00  0.00    -0.256 NA
HETATM   12  H10 ZMA A1201      23.529  -9.224  16.562  1.00  0.00     0.131 HD
BRANCH  11  13
HETATM   13  C11 ZMA A1201      21.724  -8.716  17.414  1.00  0.00     0.207 C
HETATM   14  N13 ZMA A1201      20.482  -9.150  17.758  1.00  0.00    -0.192 NA
HETATM   15  C14 ZMA A1201      19.562  -8.309  18.302  1.00  0.00     0.184 C
HETATM   16  N16 ZMA A1201      19.890  -7.028  18.501  1.00  0.00    -0.072 NA
HETATM   17  N15 ZMA A1201      18.330  -8.763  18.638  1.00  0.00    -0.275 NA
HETATM   18  N17 ZMA A1201      19.075  -6.037  19.044  1.00  0.00    -0.161 NA
HETATM   19 2H15 ZMA A1201      18.091  -9.742  18.482  1.00  0.00     0.126 HD
HETATM   20 1H15 ZMA A1201      17.640  -8.132  19.046  1.00  0.00     0.126 HD
HETATM   21  C20 ZMA A1201      19.954  -5.011  18.978  1.00  0.00     0.201 A
HETATM   22  N19 ZMA A1201      21.180  -5.293  18.462  1.00  0.00    -0.192 NA
HETATM   23  N12 ZMA A1201      22.048  -7.416  17.619  1.00  0.00    -0.185 NA
HETATM   24  C18 ZMA A1201      21.102  -6.611  18.163  1.00  0.00     0.236 A
BRANCH  21  25
HETATM   25  C21 ZMA A1201      19.598  -3.643  19.448  1.00  0.00     0.128 A
HETATM   26  C23 ZMA A1201      19.749  -1.538  19.927  1.00  0.00     0.028 A
HETATM   27  C22 ZMA A1201      20.484  -2.589  19.407  1.00  0.00     0.039 A
HETATM   28  C24 ZMA A1201      18.475  -1.989  20.256  1.00  0.00     0.136 A
HETATM   29  O25 ZMA A1201      18.372  -3.336  19.951  1.00  0.00    -0.313 OA
ENDBRANCH  21  25
ENDBRANCH  11  13
ENDBRANCH  10  11
ENDBRANCH   9  10
ENDBRANCH   8   9
TORSDOF 5
