MODEL        1
REMARK THIS MODEL IS IDENTICAL TO THE INPUT LIGAND AND NOT FROM DOCKING
REMARK 921   NORMALIZED FREE ENERGY PREDICTED BY IDOCK:   -8.40 KCAL/MOL
REMARK 922        TOTAL FREE ENERGY PREDICTED BY IDOCK:  -11.24 KCAL/MOL
REMARK 923 INTER-LIGAND FREE ENERGY PREDICTED BY IDOCK:  -10.85 KCAL/MOL
REMARK 924 INTRA-LIGAND FREE ENERGY PREDICTED BY IDOCK:   -0.38 KCAL/MOL
REMARK 927      BINDING AFFINITY PREDICTED BY RF-SCORE:    0.00 PKD
ROOT
HETATM    1  O2  P32 A 401     -19.733 -32.246  11.169  1.00  0.00    -0.700 OA 
HETATM    2  H2  P32 A 401     -20.566 -32.675  11.328  1.00  0.00     0.000 HD 
HETATM    3  C10 P32 A 401     -18.799 -32.539  12.217  1.00  0.00    -0.225 C  
ENDROOT
BRANCH   3   4
HETATM    4  C9  P32 A 401     -19.296 -32.074  13.583  1.00  0.00    -0.480 C  
BRANCH   4   5
HETATM    5  O1  P32 A 401     -18.348 -32.467  14.585  1.00  0.00    -0.377 OA 
BRANCH   5   6
HETATM    6  C4  P32 A 401     -18.318 -31.995  15.872  1.00  0.00    -0.528 A  
HETATM    7  C5  P32 A 401     -19.378 -31.305  16.454  1.00  0.00    -0.868 A  
HETATM    8  C6  P32 A 401     -19.323 -30.848  17.777  1.00  0.00    -0.676 A  
HETATM    9  C7  P32 A 401     -18.210 -31.040  18.600  1.00  0.00    -0.650 A  
HETATM   10  C8  P32 A 401     -17.106 -31.716  18.122  1.00  0.00    -0.553 A  
HETATM   11  C3  P32 A 401     -17.126 -32.221  16.719  1.00  0.00    -0.738 A  
HETATM   12  C2  P32 A 401     -15.914 -32.900  16.317  1.00  0.00    -0.542 A  
HETATM   13  C1  P32 A 401     -15.280 -32.699  17.670  1.00  0.00    -0.247 A  
HETATM   14  N1  P32 A 401     -15.908 -32.042  18.669  1.00  0.00    -0.196 NA 
HETATM   15  C16 P32 A 401     -14.036 -33.144  17.924  1.00  0.00    -0.296 C  
HETATM   16  N3  P32 A 401     -12.956 -33.547  18.100  1.00  0.00    -0.725 NA 
HETATM   17  H1  P32 A 401     -15.564 -31.840  19.608  1.00  0.00     0.000 HD 
ENDBRANCH   5   6
ENDBRANCH   4   5
ENDBRANCH   3   4
BRANCH   3  18
HETATM   18  C11 P32 A 401     -17.462 -31.850  11.962  1.00  0.00    -0.352 C  
BRANCH  18  19
HETATM   19  N2  P32 A 401     -17.035 -32.025  10.589  1.00  0.00    -0.765 NA 
HETATM   20  H2  P32 A 401     -17.655 -32.501   9.934  1.00  0.00     0.000 HD 
HETATM   21  C14 P32 A 401     -15.502 -32.201   8.757  1.00  0.00    -0.504 C  
HETATM   22  C12 P32 A 401     -15.748 -31.541  10.120  1.00  0.00    -0.421 C  
HETATM   23  C13 P32 A 401     -15.758 -30.020   9.962  1.00  0.00    -0.513 C  
HETATM   24  C15 P32 A 401     -14.624 -31.917  11.096  1.00  0.00    -0.498 C  
ENDBRANCH  18  19
ENDBRANCH   3  18
TORSDOF 5
ENDMDL
