MODEL        1
REMARK THIS MODEL IS IDENTICAL TO THE INPUT LIGAND AND NOT FROM DOCKING
REMARK 921   NORMALIZED FREE ENERGY PREDICTED BY IDOCK:   -3.40 KCAL/MOL
REMARK 922        TOTAL FREE ENERGY PREDICTED BY IDOCK:   -4.58 KCAL/MOL
REMARK 923 INTER-LIGAND FREE ENERGY PREDICTED BY IDOCK:   -4.20 KCAL/MOL
REMARK 924 INTRA-LIGAND FREE ENERGY PREDICTED BY IDOCK:   -0.38 KCAL/MOL
REMARK 927      BINDING AFFINITY PREDICTED BY RF-SCORE:    0.00 PKD
ROOT
HETATM    1  C1  RET A1296      34.702   6.513  17.934  1.00  0.00    -0.513 C  
HETATM    2  C2  RET A1296      33.988   5.925  16.700  1.00  0.00    -0.730 C  
HETATM    3  C17 RET A1296      35.823   5.482  18.249  1.00  0.00    -0.594 C  
HETATM    4  C16 RET A1296      33.678   6.447  19.089  1.00  0.00    -0.654 C  
HETATM    5  C3  RET A1296      33.264   6.908  15.815  1.00  0.00    -0.616 C  
HETATM    6  C4  RET A1296      34.133   8.074  15.384  1.00  0.00    -0.789 C  
HETATM    7  C5  RET A1296      34.940   8.713  16.515  1.00  0.00    -0.643 C  
HETATM    8  C6  RET A1296      35.265   7.987  17.727  1.00  0.00    -0.540 C  
HETATM    9  C18 RET A1296      35.285  10.140  16.107  1.00  0.00    -0.886 C  
ENDROOT
BRANCH   8  10
HETATM   10  C7  RET A1296      36.201   8.542  18.759  1.00  0.00    -0.550 C  
HETATM   11  C8  RET A1296      37.049   9.579  18.672  1.00  0.00    -0.535 C  
BRANCH  11  12
HETATM   12  C9  RET A1296      38.264   9.863  19.394  1.00  0.00    -0.548 C  
HETATM   13  C19 RET A1296      38.476   9.222  20.743  1.00  0.00    -0.151 C  
HETATM   14  C10 RET A1296      39.149  10.587  18.650  1.00  0.00    -0.653 C  
BRANCH  14  15
HETATM   15  C11 RET A1296      40.567  10.589  18.828  1.00  0.00    -0.625 C  
HETATM   16  C12 RET A1296      41.301  11.147  17.823  1.00  0.00    -0.453 C  
BRANCH  16  17
HETATM   17  C13 RET A1296      42.695  10.816  17.555  1.00  0.00    -0.555 C  
HETATM   18  C14 RET A1296      43.479  11.806  17.115  1.00  0.00     1.073 C  
HETATM   19  C20 RET A1296      43.126   9.383  17.644  1.00  0.00    -0.716 C  
HETATM   20  C15 RET A1296      44.792  11.662  16.561  1.00  0.00     5.482 C  
ENDBRANCH  16  17
ENDBRANCH  14  15
ENDBRANCH  11  12
ENDBRANCH   8  10
TORSDOF 4
ENDMDL
