REMARK  2 active torsions:
REMARK  status: ('A' for Active; 'I' for Inactive)
REMARK    1  A    between atoms: C13_11  and  C14_17
REMARK    2  A    between atoms: C14_17  and  C15_18
ROOT
HETATM    1  C10 DL2 A 412    -234.989  48.626  36.057  1.00  0.00     0.081 C
HETATM    2  C8  DL2 A 412    -236.490  48.502  35.768  1.00  0.00     0.184 C
HETATM    3  C22 DL2 A 412    -236.970  47.061  35.489  1.00  0.00     0.081 C
HETATM    4  O7  DL2 A 412    -237.162  49.014  36.916  1.00  0.00    -0.310 OA
HETATM    5  C21 DL2 A 412    -236.210  46.136  36.436  1.00  0.00     0.098 C
HETATM    6  C3  DL2 A 412    -237.868  50.097  36.495  1.00  0.00     0.110 A
HETATM    7  N12 DL2 A 412    -234.744  46.169  36.177  1.00  0.00    -0.244 N
HETATM    8  C2  DL2 A 412    -237.668  50.274  35.115  1.00  0.00     0.110 A
HETATM    9  C1  DL2 A 412    -238.263  51.291  34.421  1.00  0.00     0.035 A
HETATM   10  C11 DL2 A 412    -234.274  47.399  35.519  1.00  0.00     0.098 C
HETATM   11  C13 DL2 A 412    -233.980  45.012  35.975  1.00  0.00     0.209 C
HETATM   12  O9  DL2 A 412    -236.822  49.304  34.645  1.00  0.00    -0.310 OA
HETATM   13  O20 DL2 A 412    -232.757  45.018  36.169  1.00  0.00    -0.279 OA
HETATM   14  C6  DL2 A 412    -239.083  52.143  35.176  1.00  0.00     0.003 A
HETATM   15  C5  DL2 A 412    -239.274  51.969  36.531  1.00  0.00     0.003 A
HETATM   16  C4  DL2 A 412    -238.667  50.925  37.239  1.00  0.00     0.035 A
ENDROOT
BRANCH  11  17
HETATM   17  C14 DL2 A 412    -234.729  43.776  35.489  1.00  0.00     0.139 C
BRANCH  17  18
HETATM   18  C15 DL2 A 412    -235.485  43.087  36.590  1.00  0.00     0.008 C
HETATM   19  N16 DL2 A 412    -236.686  42.497  36.256  1.00  0.00    -0.227 N
HETATM   20  H16 DL2 A 412    -237.016  42.548  35.292  1.00  0.00     0.136 HD
HETATM   21  C17 DL2 A 412    -237.475  41.819  37.228  1.00  0.00     0.247 C
HETATM   22  C23 DL2 A 412    -236.943  41.814  38.550  1.00  0.00     0.100 C
HETATM   23  O18 DL2 A 412    -238.529  41.300  36.890  1.00  0.00    -0.273 OA
HETATM   24 CL   DL2 A 412    -237.906  41.009  39.667  1.00  0.00    -0.078 Cl
HETATM   25  C25 DL2 A 412    -235.770  42.403  38.891  1.00  0.00     0.026 C
HETATM   26  C19 DL2 A 412    -235.014  43.065  37.879  1.00  0.00     0.017 C
ENDBRANCH  17  18
ENDBRANCH  11  17
TORSDOF 2
