MODEL        1
REMARK THIS MODEL IS IDENTICAL TO THE INPUT LIGAND AND NOT FROM DOCKING
REMARK 921   NORMALIZED FREE ENERGY PREDICTED BY IDOCK:  -12.29 KCAL/MOL
REMARK 922        TOTAL FREE ENERGY PREDICTED BY IDOCK:  -14.18 KCAL/MOL
REMARK 923 INTER-LIGAND FREE ENERGY PREDICTED BY IDOCK:  -13.73 KCAL/MOL
REMARK 924 INTRA-LIGAND FREE ENERGY PREDICTED BY IDOCK:   -0.45 KCAL/MOL
REMARK 927      BINDING AFFINITY PREDICTED BY RF-SCORE:    0.00 PKD
ROOT
HETATM    1  C01 51E A4005     -24.014  17.911  44.231  1.00  0.00    -0.657 A  
HETATM    2  C02 51E A4005     -23.617  19.134  44.801  1.00  0.00    -0.520 A  
HETATM    3  C03 51E A4005     -22.643  19.157  45.811  1.00  0.00    -1.038 A  
HETATM    4 CL   51E A4005     -24.333  20.607  44.256  1.00  0.00    -0.959 Cl 
HETATM    5  C04 51E A4005     -22.063  17.951  46.251  1.00  0.00    -0.835 A  
HETATM    6  C19 51E A4005     -21.053  17.971  47.296  1.00  0.00    -0.552 C  
HETATM    7  C6  51E A4005     -22.465  16.728  45.675  1.00  0.00    -0.688 A  
HETATM    8  C7  51E A4005     -23.451  16.689  44.660  1.00  0.00    -0.711 A  
HETATM    9  N20 51E A4005     -20.251  17.988  48.127  1.00  0.00    -0.573 NA 
ENDROOT
BRANCH   8  10
HETATM   10  C8  51E A4005     -23.871  15.412  44.047  1.00  0.00    -0.471 A  
HETATM   11  C9  51E A4005     -24.222  15.320  42.701  1.00  0.00    -0.630 A  
HETATM   12  C10 51E A4005     -24.606  14.064  42.216  1.00  0.00    -0.504 A  
HETATM   13  N11 51E A4005     -24.621  12.994  43.033  1.00  0.00    -0.530 NA 
HETATM   14  N13 51E A4005     -23.898  14.329  44.839  1.00  0.00    -0.395 NA 
HETATM   15  C12 51E A4005     -24.271  13.183  44.292  1.00  0.00    -0.485 A  
BRANCH  12  16
HETATM   16  C4  51E A4005     -24.991  13.861  40.796  1.00  0.00    -0.510 A  
HETATM   17  C2  51E A4005     -25.492  12.498  38.860  1.00  0.00    -0.559 A  
HETATM   18  C3  51E A4005     -25.131  12.583  40.213  1.00  0.00    -0.677 A  
HETATM   19  C1  51E A4005     -25.697  13.679  38.125  1.00  0.00    -0.604 A  
HETATM   20  F1  51E A4005     -26.045  13.638  36.817  1.00  0.00    -0.581 F  
HETATM   21  C5  51E A4005     -25.532  14.908  38.781  1.00  0.00    -0.437 A  
HETATM   22  N1  51E A4005     -25.186  14.994  40.080  1.00  0.00    -0.810 NA 
ENDBRANCH  12  16
ENDBRANCH   8  10
TORSDOF 2
ENDMDL
