MODEL        1
REMARK THIS MODEL IS IDENTICAL TO THE INPUT LIGAND AND NOT FROM DOCKING
REMARK 921   NORMALIZED FREE ENERGY PREDICTED BY IDOCK:   -5.97 KCAL/MOL
REMARK 922        TOTAL FREE ENERGY PREDICTED BY IDOCK:   -8.65 KCAL/MOL
REMARK 923 INTER-LIGAND FREE ENERGY PREDICTED BY IDOCK:   -8.41 KCAL/MOL
REMARK 924 INTRA-LIGAND FREE ENERGY PREDICTED BY IDOCK:   -0.23 KCAL/MOL
REMARK 927      BINDING AFFINITY PREDICTED BY RF-SCORE:    0.00 PKD
ROOT
HETATM    1  C1  ITD A1500      16.263  -6.280  67.102  1.00  0.00    -0.409 C  
HETATM    2  C2  ITD A1500      17.661  -6.546  67.643  1.00  0.00    -0.270 C  
HETATM    3  N1  ITD A1500      17.926  -7.984  67.615  1.00  0.00     0.057 NA 
HETATM    4  C3  ITD A1500      18.729  -5.812  66.836  1.00  0.00    -0.634 C  
HETATM    5  C4  ITD A1500      18.229  -8.379  68.859  1.00  0.00    -0.350 C  
HETATM    6  S1  ITD A1500      18.853  -9.843  69.494  1.00  0.00    -0.152 SA 
HETATM    7  C5  ITD A1500      18.981  -9.093  71.061  1.00  0.00    -0.191 C  
HETATM    8  C7  ITD A1500      18.588  -7.737  70.955  1.00  0.00    -0.190 C  
HETATM    9  C6  ITD A1500      17.752  -6.132  69.120  1.00  0.00    -0.231 C  
HETATM   10  N2  ITD A1500      18.209  -7.382  69.701  1.00  0.00    -0.211 NA 
ENDROOT
BRANCH   8  11
HETATM   11  C8  ITD A1500      18.621  -6.760  72.105  1.00  0.00    -0.258 C  
BRANCH  11  12
HETATM   12  S2  ITD A1500      20.266  -6.133  72.241  1.00  0.00    -0.010 SA 
BRANCH  12  13
HETATM   13  C9  ITD A1500      21.255  -7.369  72.779  1.00  0.00    -0.121 C  
BRANCH  13  14
HETATM   14  N4  ITD A1500      22.509  -7.497  72.324  1.00  0.00    -0.791 NA 
HETATM   15  H4  ITD A1500      23.232  -7.657  73.025  1.00  0.00     0.000 HD 
BRANCH  14  16
HETATM   16  C16 ITD A1500      22.954  -7.432  70.931  1.00  0.00    -0.018 C  
HETATM   17  C21 ITD A1500      23.828  -6.218  70.637  1.00  0.00    -0.281 C  
HETATM   18  C17 ITD A1500      21.895  -7.605  69.845  1.00  0.00    -0.416 C  
HETATM   19  C20 ITD A1500      24.516  -6.362  69.280  1.00  0.00    -0.636 C  
HETATM   20  C18 ITD A1500      22.552  -7.752  68.473  1.00  0.00    -0.648 C  
HETATM   21  C19 ITD A1500      23.512  -6.603  68.157  1.00  0.00    -0.684 C  
ENDBRANCH  14  16
ENDBRANCH  13  14
BRANCH  13  22
HETATM   22  N3  ITD A1500      20.721  -8.189  73.690  1.00  0.00    -0.213 NA 
HETATM   23  H3  ITD A1500      19.758  -7.975  73.952  1.00  0.00     0.000 HD 
BRANCH  22  24
HETATM   24  C10 ITD A1500      21.301  -9.340  74.366  1.00  0.00    -0.230 C  
HETATM   25  C14 ITD A1500      22.144 -11.682  74.350  1.00  0.00    -0.319 C  
HETATM   26  C15 ITD A1500      21.967 -10.410  73.516  1.00  0.00    -0.131 C  
HETATM   27  C12 ITD A1500      22.268 -10.246  76.470  1.00  0.00    -0.447 C  
HETATM   28  C13 ITD A1500      22.821 -11.453  75.710  1.00  0.00    -0.358 C  
HETATM   29  C11 ITD A1500      22.147  -9.006  75.586  1.00  0.00    -0.273 C  
ENDBRANCH  22  24
ENDBRANCH  13  22
ENDBRANCH  12  13
ENDBRANCH  11  12
ENDBRANCH   8  11
TORSDOF 7
ENDMDL
