MODEL        1
REMARK THIS MODEL IS IDENTICAL TO THE INPUT LIGAND AND NOT FROM DOCKING
REMARK 921   NORMALIZED FREE ENERGY PREDICTED BY IDOCK:  -10.69 KCAL/MOL
REMARK 922        TOTAL FREE ENERGY PREDICTED BY IDOCK:  -13.77 KCAL/MOL
REMARK 923 INTER-LIGAND FREE ENERGY PREDICTED BY IDOCK:  -13.19 KCAL/MOL
REMARK 924 INTRA-LIGAND FREE ENERGY PREDICTED BY IDOCK:   -0.58 KCAL/MOL
REMARK 927      BINDING AFFINITY PREDICTED BY RF-SCORE:    0.00 PKD
ROOT
HETATM    1  C01 8NU A3001      10.875   1.419  64.653  1.00  0.00    -0.409 C  
HETATM    2  C02 8NU A3001      10.080   0.261  63.799  1.00  0.00    -0.373 C  
HETATM    3  C03 8NU A3001      10.374   0.003  62.501  1.00  0.00    -0.429 C  
HETATM    4  C22 8NU A3001       9.625  -1.097  61.699  1.00  0.00    -0.335 C  
HETATM    5  C28 8NU A3001       7.148  -2.341  64.561  1.00  0.00    -0.250 C  
HETATM    6  N24 8NU A3001       8.535  -1.862  62.455  1.00  0.00    -0.197 N  
HETATM    7  C27 8NU A3001       6.258  -3.328  63.779  1.00  0.00    -0.328 C  
HETATM    8  O23 8NU A3001       9.841  -1.383  60.528  1.00  0.00    -0.302 OA 
HETATM    9  C25 8NU A3001       7.681  -3.012  61.764  1.00  0.00    -0.295 C  
HETATM   10  N30 8NU A3001       9.017  -0.518  64.459  1.00  0.00    -0.356 NA 
HETATM   11  C26 8NU A3001       7.073  -4.050  62.731  1.00  0.00    -0.491 C  
HETATM   12  C29 8NU A3001       8.346  -1.460  63.819  1.00  0.00    -0.320 C  
ENDROOT
BRANCH   3  13
HETATM   13  C04 8NU A3001      11.470   0.727  61.658  1.00  0.00    -0.365 C  
BRANCH  13  14
HETATM   14  C05 8NU A3001      12.830   0.068  61.846  1.00  0.00    -0.283 C  
BRANCH  14  15
HETATM   15  N06 8NU A3001      13.833   0.656  60.893  1.00  0.00    -0.328 NA 
HETATM   16  C09 8NU A3001      16.083  -0.311  59.137  1.00  0.00    -0.591 C  
HETATM   17  C08 8NU A3001      16.322   0.413  60.488  1.00  0.00    -0.567 C  
HETATM   18  C11 8NU A3001      13.560   0.020  59.563  1.00  0.00    -0.369 C  
HETATM   19  C07 8NU A3001      15.146   0.265  61.467  1.00  0.00    -0.194 C  
HETATM   20  C10 8NU A3001      14.715   0.102  58.567  1.00  0.00    -0.452 C  
BRANCH  16  21
HETATM   21  C12 8NU A3001      17.141  -0.071  58.039  1.00  0.00    -0.407 A  
HETATM   22  C16 8NU A3001      18.510  -0.680  57.963  1.00  0.00    -0.346 A  
HETATM   23  C15 8NU A3001      19.100  -0.151  56.794  1.00  0.00    -0.365 A  
HETATM   24  O14 8NU A3001      18.146   0.709  56.222  1.00  0.00    -0.447 OA 
HETATM   25  C21 8NU A3001      20.431  -0.505  56.377  1.00  0.00    -0.876 A  
HETATM   26  N13 8NU A3001      17.018   0.735  56.974  1.00  0.00    -0.414 NA 
HETATM   27  C19 8NU A3001      21.161  -1.415  57.177  1.00  0.00    -0.631 A  
HETATM   28  C18 8NU A3001      20.583  -1.964  58.373  1.00  0.00    -0.993 A  
HETATM   29  F20 8NU A3001      22.384  -1.780  56.847  1.00  0.00    -0.739 F  
HETATM   30  C17 8NU A3001      19.285  -1.590  58.742  1.00  0.00    -0.734 A  
ENDBRANCH  16  21
ENDBRANCH  14  15
ENDBRANCH  13  14
ENDBRANCH   3  13
TORSDOF 4
ENDMDL
