REMARK  2 active torsions:
REMARK  status: ('A' for Active; 'I' for Inactive)
REMARK    1  A    between atoms: C14_5  and  O17_18
REMARK    2  A    between atoms: O17_18  and  C18_19
ROOT
HETATM    1  C1  QNB A 501     183.275  25.800 527.685  1.00  0.00     0.202 C
HETATM    2  C2  QNB A 501     183.907  26.845 528.614  1.00  0.00    -0.002 A
HETATM    3  O15 QNB A 501     183.546  24.502 528.221  1.00  0.00    -0.371 OA
HETATM    4  C8  QNB A 501     183.887  25.869 526.281  1.00  0.00    -0.002 A
HETATM    5  C14 QNB A 501     181.745  25.989 527.636  1.00  0.00     0.304 C
HETATM    6  H15 QNB A 501     184.488  24.386 528.251  1.00  0.00     0.212 HD
HETATM    7  C12 QNB A 501     183.659  26.200 523.904  1.00  0.00     0.000 A
HETATM    8  O16 QNB A 501     180.970  25.079 527.732  1.00  0.00    -0.261 OA
HETATM    9  C9  QNB A 501     185.249  25.665 526.091  1.00  0.00     0.007 A
HETATM   10  C3  QNB A 501     184.198  28.125 528.157  1.00  0.00     0.007 A
HETATM   11  C10 QNB A 501     185.804  25.728 524.825  1.00  0.00     0.000 A
HETATM   12  C13 QNB A 501     183.100  26.137 525.168  1.00  0.00     0.007 A
HETATM   13  C4  QNB A 501     184.771  29.063 529.000  1.00  0.00     0.000 A
HETATM   14  C5  QNB A 501     185.060  28.737 530.306  1.00  0.00     0.000 A
HETATM   15  C7  QNB A 501     184.205  26.531 529.934  1.00  0.00     0.007 A
HETATM   16  C11 QNB A 501     185.010  25.995 523.732  1.00  0.00     0.000 A
HETATM   17  C6  QNB A 501     184.779  27.472 530.773  1.00  0.00     0.000 A
ENDROOT
BRANCH   5  18
HETATM   18  O17 QNB A 501     181.385  27.272 527.499  1.00  0.00    -0.308 OA
BRANCH  18  19
HETATM   19  C18 QNB A 501     179.965  27.588 527.592  1.00  0.00     0.145 C
HETATM   20  C25 QNB A 501     178.003  29.564 526.745  1.00  0.00     0.085 C
HETATM   21  C23 QNB A 501     179.440  27.631 526.165  1.00  0.00     0.022 C
HETATM   22  C24 QNB A 501     178.001  28.142 526.197  1.00  0.00     0.021 C
HETATM   23  N20 QNB A 501     179.342  29.940 527.210  1.00  0.00    -0.300 NA
HETATM   24  C21 QNB A 501     180.253  29.967 526.062  1.00  0.00     0.085 C
HETATM   25  C19 QNB A 501     179.813  28.967 528.197  1.00  0.00     0.116 C
HETATM   26  C22 QNB A 501     180.301  28.609 525.371  1.00  0.00     0.021 C
ENDBRANCH  18  19
ENDBRANCH   5  18
TORSDOF 2
