REMARK  6 active torsions:
REMARK  status: ('A' for Active; 'I' for Inactive)
REMARK    1  A    between atoms: C4_1  and  N1_7
REMARK    2  A    between atoms: C6_8  and  C7_14
REMARK    3  A    between atoms: C7_14  and  N2_15
REMARK    4  A    between atoms: N2_15  and  N3_17
REMARK    5  A    between atoms: N4_20  and  C10_23
REMARK    6  A    between atoms: C10_23  and  C11_24
ROOT
HETATM    1  C4  SNT A 605     -11.712 -22.106 -14.587  1.00  0.00     0.045 A
HETATM    2  C16 SNT A 605     -10.477 -22.771 -14.461  1.00  0.00     0.022 A
HETATM    3  C3  SNT A 605     -12.142 -21.633 -15.840  1.00  0.00     0.022 A
HETATM    4  C15 SNT A 605      -9.654 -22.900 -15.580  1.00  0.00     0.002 A
HETATM    5  C2  SNT A 605     -11.325 -21.794 -16.961  1.00  0.00     0.002 A
HETATM    6  C1  SNT A 605     -10.080 -22.416 -16.825  1.00  0.00     0.000 A
ENDROOT
BRANCH   1   7
HETATM    7  N1  SNT A 605     -12.519 -21.990 -13.522  1.00  0.00    -0.141 NA
HETATM    8  C6  SNT A 605     -13.421 -21.458 -11.606  1.00  0.00     0.025 A
HETATM    9  C18 SNT A 605     -15.391 -23.151 -11.784  1.00  0.00     0.067 C
HETATM   10  N5  SNT A 605     -13.547 -22.716 -13.374  1.00  0.00    -0.193 NA
HETATM   11  C17 SNT A 605     -14.134 -22.416 -12.225  1.00  0.00     0.063 A
HETATM   12  C23 SNT A 605     -11.258 -20.199 -12.194  1.00  0.00     0.060 C
HETATM   13  C5  SNT A 605     -12.401 -21.199 -12.439  1.00  0.00     0.030 A
BRANCH   8  14
HETATM   14  C7  SNT A 605     -13.640 -20.836 -10.423  1.00  0.00     0.080 C
BRANCH  14  15
HETATM   15  N2  SNT A 605     -14.682 -21.250  -9.674  1.00  0.00    -0.230 NA
HETATM   16  H2  SNT A 605     -15.222 -22.052  -9.999  1.00  0.00     0.146 HD
BRANCH  15  17
HETATM   17  N3  SNT A 605     -15.046 -20.662  -8.523  1.00  0.00    -0.237 NA
HETATM   18  C8  SNT A 605     -13.986 -20.129  -7.625  1.00  0.00     0.118 C
HETATM   19  C9  SNT A 605     -14.633 -19.464  -6.428  1.00  0.00     0.101 C
HETATM   20  N4  SNT A 605     -15.470 -20.471  -5.728  1.00  0.00    -0.296 NA
HETATM   21  C19 SNT A 605     -16.567 -20.952  -6.586  1.00  0.00     0.101 C
HETATM   22  C20 SNT A 605     -15.965 -21.591  -7.820  1.00  0.00     0.118 C
BRANCH  20  23
HETATM   23  C10 SNT A 605     -15.972 -20.071  -4.395  1.00  0.00     0.119 C
BRANCH  23  24
HETATM   24  C11 SNT A 605     -14.950 -19.940  -3.461  1.00  0.00    -0.033 A
HETATM   25  C12 SNT A 605     -14.308 -21.082  -2.978  1.00  0.00     0.005 A
HETATM   26  C13 SNT A 605     -13.280 -20.922  -2.043  1.00  0.00     0.000 A
HETATM   27  C14 SNT A 605     -12.907 -19.651  -1.582  1.00  0.00     0.000 A
HETATM   28  C21 SNT A 605     -13.556 -18.514  -2.070  1.00  0.00     0.000 A
HETATM   29  C22 SNT A 605     -14.573 -18.662  -3.012  1.00  0.00     0.005 A
ENDBRANCH  23  24
ENDBRANCH  20  23
ENDBRANCH  15  17
ENDBRANCH  14  15
ENDBRANCH   8  14
ENDBRANCH   1   7
TORSDOF 6
