MODEL        1
REMARK THIS MODEL IS IDENTICAL TO THE INPUT LIGAND AND NOT FROM DOCKING
REMARK 921   NORMALIZED FREE ENERGY PREDICTED BY IDOCK:   -2.37 KCAL/MOL
REMARK 922        TOTAL FREE ENERGY PREDICTED BY IDOCK:   -3.52 KCAL/MOL
REMARK 923 INTER-LIGAND FREE ENERGY PREDICTED BY IDOCK:   -3.34 KCAL/MOL
REMARK 924 INTRA-LIGAND FREE ENERGY PREDICTED BY IDOCK:   -0.18 KCAL/MOL
REMARK 927      BINDING AFFINITY PREDICTED BY RF-SCORE:    0.00 PKD
ROOT
HETATM    1  CBF BF0 A 601     -27.674  -8.743 -15.007  1.00  0.00    -0.615 C  
HETATM    2  CBG BF0 A 601     -27.434  -7.353 -14.448  1.00  0.00    -0.630 C  
HETATM    3  CBE BF0 A 601     -26.336  -8.407 -14.330  1.00  0.00    -0.773 C  
ENDROOT
BRANCH   3   4
HETATM    4  CBD BF0 A 601     -25.984  -8.851 -12.878  1.00  0.00    -0.355 C  
BRANCH   4   5
HETATM    5  NAJ BF0 A 601     -25.934 -10.308 -12.595  1.00  0.00    -0.252 NA 
HETATM    6  CAI BF0 A 601     -27.259 -10.996 -12.682  1.00  0.00    -0.320 C  
HETATM    7  CAR BF0 A 601     -27.260 -12.476 -12.410  1.00  0.00    -0.257 C  
HETATM    8  OAS BF0 A 601     -26.332 -13.147 -13.263  1.00  0.00    -0.256 OA 
HETATM    9  CAQ BF0 A 601     -28.656 -13.091 -12.522  1.00  0.00    -0.370 C  
HETATM   10  CAP BF0 A 601     -28.674 -14.519 -12.044  1.00  0.00    -0.309 C  
HETATM   11  HAS BF0 A 601     -25.465 -12.765 -13.193  1.00  0.00     0.000 HD 
HETATM   12  CAO BF0 A 601     -28.226 -14.446 -10.537  1.00  0.00    -0.219 C  
HETATM   13  CAH BF0 A 601     -28.499 -10.494 -11.860  1.00  0.00    -0.483 C  
HETATM   14  CAN BF0 A 601     -26.844 -13.782 -10.383  1.00  0.00    -0.225 C  
HETATM   15  CAG BF0 A 601     -28.429 -10.775 -10.475  1.00  0.00    -0.442 A  
HETATM   16  CAM BF0 A 601     -26.812 -12.526 -10.960  1.00  0.00    -0.249 C  
HETATM   17  HAD BF0 A 601     -28.534 -11.522  -6.068  1.00  0.00     0.000 HD 
HETATM   18  CAL BF0 A 601     -25.414 -11.906 -10.780  1.00  0.00    -0.553 C  
HETATM   19  CBC BF0 A 601     -27.699 -11.843 -10.090  1.00  0.00    -0.328 A  
HETATM   20  CAF BF0 A 601     -29.238 -10.140  -9.555  1.00  0.00    -0.585 A  
HETATM   21  CAE BF0 A 601     -29.107 -10.618  -8.263  1.00  0.00    -0.598 A  
HETATM   22  CAB BF0 A 601     -27.656 -12.441  -8.864  1.00  0.00    -0.315 A  
HETATM   23  CAK BF0 A 601     -25.510 -10.460 -11.222  1.00  0.00    -0.228 C  
HETATM   24  OAD BF0 A 601     -28.156 -12.113  -6.708  1.00  0.00    -0.219 OA 
HETATM   25  OAA BF0 A 601     -26.608 -13.297  -9.000  1.00  0.00    -0.438 OA 
HETATM   26  CAC BF0 A 601     -28.181 -11.619  -7.974  1.00  0.00    -0.415 A  
BRANCH  12  27
HETATM   27  NAT BF0 A 601     -28.194 -15.779  -9.909  1.00  0.00    -0.312 N  
HETATM   28  CAU BF0 A 601     -29.302 -16.538  -9.812  1.00  0.00     1.402 C  
HETATM   29  HAT BF0 A 601     -27.312 -16.134  -9.539  1.00  0.00     0.000 HD 
HETATM   30  OAV BF0 A 601     -30.419 -16.187 -10.190  1.00  0.00    -0.562 OA 
BRANCH  28  31
HETATM   31  CAW BF0 A 601     -29.118 -17.898  -9.138  1.00  0.00     5.113 C  
BRANCH  31  32
HETATM   32  CAX BF0 A 601     -30.172 -18.853  -9.723  1.00  0.00     1.057 C  
BRANCH  32  33
HETATM   33  CAY BF0 A 601     -30.053 -19.003 -11.252  1.00  0.00    -0.175 C  
HETATM   34  OAZ BF0 A 601     -31.056 -19.220 -11.934  1.00  0.00    -0.186 OA 
BRANCH  33  35
HETATM   35  OBA BF0 A 601     -28.801 -18.878 -11.772  1.00  0.00    -0.136 OA 
HETATM   36  CBB BF0 A 601     -28.860 -19.034 -13.196  1.00  0.00    -0.114 C  
ENDBRANCH  33  35
ENDBRANCH  32  33
ENDBRANCH  31  32
ENDBRANCH  28  31
ENDBRANCH  12  27
ENDBRANCH   4   5
ENDBRANCH   3   4
TORSDOF 7
ENDMDL
