REMARK  5 active torsions:
REMARK  status: ('A' for Active; 'I' for Inactive)
REMARK    1  A    between atoms: C7_2  and  C8_9
REMARK    2  A    between atoms: C8_9  and  C9_10
REMARK    3  A    between atoms: C9_10  and  N10_11
REMARK    4  A    between atoms: N10_11  and  C11_13
REMARK    5  A    between atoms: C20_19  and  C21_25
ROOT
HETATM    1  C1  ZMA A 507       1.642 103.010  55.799  1.00  0.00     0.006 A
HETATM    2  C7  ZMA A 507       0.682 102.042  55.411  1.00  0.00    -0.046 A
HETATM    3  O4  ZMA A 507      -0.174 106.129  54.998  1.00  0.00    -0.360 OA
HETATM    4  C6  ZMA A 507      -0.515 102.424  54.858  1.00  0.00     0.006 A
HETATM    5  C2  ZMA A 507       1.365 104.364  55.672  1.00  0.00     0.033 A
HETATM    6  C5  ZMA A 507      -0.791 103.777  54.764  1.00  0.00     0.033 A
HETATM    7  H4  ZMA A 507      -1.013 106.392  54.638  1.00  0.00     0.217 HD
HETATM    8  C3  ZMA A 507       0.143 104.747  55.148  1.00  0.00     0.073 A
ENDROOT
BRANCH   2   9
HETATM    9  C8  ZMA A 507       0.990 100.580  55.510  1.00  0.00     0.050 C
BRANCH   9  10
HETATM   10  C9  ZMA A 507       1.910 100.380  54.316  1.00  0.00     0.094 C
BRANCH  10  11
HETATM   11  N10 ZMA A 507       2.313  99.016  54.202  1.00  0.00    -0.256 NA
HETATM   12  H10 ZMA A 507       3.195  98.696  54.603  1.00  0.00     0.131 HD
BRANCH  11  13
HETATM   13  C11 ZMA A 507       1.457  98.116  53.518  1.00  0.00     0.207 C
HETATM   14  N12 ZMA A 507       1.868  96.886  53.350  1.00  0.00    -0.185 NA
HETATM   15  C18 ZMA A 507       1.048  96.069  52.720  1.00  0.00     0.236 A
HETATM   16  N16 ZMA A 507      -0.118  96.501  52.298  1.00  0.00    -0.072 NA
HETATM   17  N17 ZMA A 507      -0.781  95.471  51.741  1.00  0.00    -0.161 NA
HETATM   18  C14 ZMA A 507      -0.520  97.759  52.498  1.00  0.00     0.184 C
HETATM   19  C20 ZMA A 507       0.048  94.473  51.809  1.00  0.00     0.201 A
HETATM   20  N13 ZMA A 507       0.283  98.617  53.117  1.00  0.00    -0.192 NA
HETATM   21  N15 ZMA A 507      -1.731  98.289  52.064  1.00  0.00    -0.275 NA
HETATM   22 2H15 ZMA A 507      -2.465  97.684  52.433  1.00  0.00     0.126 HD
HETATM   23 1H15 ZMA A 507      -2.038  99.250  52.217  1.00  0.00     0.126 HD
HETATM   24  N19 ZMA A 507       1.205  94.812  52.413  1.00  0.00    -0.192 NA
BRANCH  19  25
HETATM   25  C21 ZMA A 507      -0.269  93.232  51.325  1.00  0.00     0.128 A
HETATM   26  C22 ZMA A 507       0.458  92.096  51.145  1.00  0.00     0.039 A
HETATM   27  C23 ZMA A 507      -0.462  91.182  50.677  1.00  0.00     0.028 A
HETATM   28  C24 ZMA A 507      -1.690  91.776  50.602  1.00  0.00     0.136 A
HETATM   29  O25 ZMA A 507      -1.573  93.024  51.024  1.00  0.00    -0.313 OA
ENDBRANCH  19  25
ENDBRANCH  11  13
ENDBRANCH  10  11
ENDBRANCH   9  10
ENDBRANCH   2   9
TORSDOF 5
