MODEL        1
REMARK THIS MODEL IS IDENTICAL TO THE INPUT LIGAND AND NOT FROM DOCKING
REMARK 921   NORMALIZED FREE ENERGY PREDICTED BY IDOCK:   -8.15 KCAL/MOL
REMARK 922        TOTAL FREE ENERGY PREDICTED BY IDOCK:  -11.35 KCAL/MOL
REMARK 923 INTER-LIGAND FREE ENERGY PREDICTED BY IDOCK:  -10.53 KCAL/MOL
REMARK 924 INTRA-LIGAND FREE ENERGY PREDICTED BY IDOCK:   -0.83 KCAL/MOL
REMARK 927      BINDING AFFINITY PREDICTED BY RF-SCORE:    0.00 PKD
ROOT
HETATM    1  OAF 2ID A1101      24.560  20.554  12.040  1.00  0.00    -0.948 OA 
HETATM    2  PBC 2ID A1101      24.196  21.030  10.556  1.00  0.00    -0.163 P  
HETATM    3  OAG 2ID A1101      23.076  19.990  10.056  1.00  0.00    -0.238 OA 
HETATM    4  OAC 2ID A1101      25.441  20.990   9.735  1.00  0.00    -0.526 OA 
HETATM    5  OAR 2ID A1101      23.501  22.510  10.652  1.00  0.00    -0.295 OA 
ENDROOT
BRANCH   5   6
HETATM    6  CAW 2ID A1101      22.171  22.773  10.156  1.00  0.00    -0.279 C  
HETATM    7  CAK 2ID A1101      21.206  22.586  11.300  1.00  0.00    -0.280 C  
HETATM    8  CAX 2ID A1101      20.126  23.662  11.110  1.00  0.00    -0.225 C  
HETATM    9  CAL 2ID A1101      22.064  25.395  10.646  1.00  0.00    -0.381 C  
HETATM   10  CAY 2ID A1101      20.761  24.755  10.304  1.00  0.00    -0.368 C  
HETATM   11  CBA 2ID A1101      22.016  24.266   9.678  1.00  0.00    -0.363 C  
BRANCH   8  12
HETATM   12  N9  2ID A1101      18.960  23.143  10.358  1.00  0.00    -0.265 NA 
HETATM   13  I2  2ID A1101      15.369  22.781  14.426  1.00  0.00     0.198 I  
HETATM   14  C5  2ID A1101      16.979  22.391   9.955  1.00  0.00    -0.328 A  
HETATM   15  C4  2ID A1101      17.789  22.866  10.903  1.00  0.00    -0.102 A  
HETATM   16  C2  2ID A1101      16.081  22.617  12.458  1.00  0.00    -0.310 A  
HETATM   17  C6  2ID A1101      15.733  22.036  10.260  1.00  0.00    -0.423 A  
HETATM   18  N7  2ID A1101      17.654  22.376   8.819  1.00  0.00    -0.646 NA 
HETATM   19  C8  2ID A1101      18.875  22.840   9.070  1.00  0.00    -0.380 A  
HETATM   20  N1  2ID A1101      15.265  22.146  11.501  1.00  0.00    -0.400 NA 
HETATM   21  N3  2ID A1101      17.345  22.982  12.161  1.00  0.00    -0.074 NA 
BRANCH  17  22
HETATM   22  N6  2ID A1101      14.987  21.579   9.275  1.00  0.00    -0.382 NA 
HETATM   23  H6  2ID A1101      15.219  21.770   8.300  1.00  0.00     0.000 HD 
HETATM   24  CAA 2ID A1101      13.803  20.780   9.641  1.00  0.00    -0.352 C  
ENDBRANCH  17  22
ENDBRANCH   8  12
BRANCH  11  25
HETATM   25  CAJ 2ID A1101      21.874  24.566   8.207  1.00  0.00    -0.390 C  
BRANCH  25  26
HETATM   26  OAQ 2ID A1101      22.447  23.561   7.393  1.00  0.00    -0.348 OA 
HETATM   27  PBB 2ID A1101      22.240  23.721   5.803  1.00  0.00    -0.482 P  
HETATM   28  OAD 2ID A1101      22.504  25.255   5.471  1.00  0.00    -1.203 OA 
HETATM   29  OAB 2ID A1101      23.085  22.754   5.047  1.00  0.00    -0.125 OA 
HETATM   30  OAE 2ID A1101      20.645  23.499   5.538  1.00  0.00    -0.448 OA 
ENDBRANCH  25  26
ENDBRANCH  11  25
ENDBRANCH   5   6
TORSDOF 5
ENDMDL
