REMARK  5 active torsions:
REMARK  status: ('A' for Active; 'I' for Inactive)
REMARK    1  A    between atoms: C09_3  and  N08_9
REMARK    2  A    between atoms: C06_10  and  C05_13
REMARK    3  A    between atoms: C05_13  and  C02_14
REMARK    4  A    between atoms: C13_7  and  C17_18
REMARK    5  A    between atoms: N19_20  and  C20_22
ROOT
HETATM    1  C10 9Y2 A1201     -22.185   8.360  16.124  1.00  0.00     0.145 A
HETATM    2  F11 9Y2 A1201     -21.412   9.401  15.755  1.00  0.00    -0.204 F
HETATM    3  C09 9Y2 A1201     -23.551   8.368  15.827  1.00  0.00     0.093 A
HETATM    4  C15 9Y2 A1201     -24.336   7.298  16.169  1.00  0.00     0.145 A
HETATM    5  C12 9Y2 A1201     -21.630   7.284  16.823  1.00  0.00     0.053 A
HETATM    6  F16 9Y2 A1201     -25.617   7.316  15.868  1.00  0.00    -0.204 F
HETATM    7  C13 9Y2 A1201     -22.474   6.241  17.209  1.00  0.00     0.039 A
HETATM    8  C14 9Y2 A1201     -23.813   6.211  16.860  1.00  0.00     0.053 A
ENDROOT
BRANCH   3   9
HETATM    9  N08 9Y2 A1201     -24.082   9.428  15.043  1.00  0.00    -0.224 N
HETATM   10  C06 9Y2 A1201     -24.042  10.795  15.333  1.00  0.00     0.206 C
HETATM   11  O07 9Y2 A1201     -23.630  11.147  16.426  1.00  0.00    -0.279 OA
HETATM   12  H08 9Y2 A1201     -24.543   9.162  14.173  1.00  0.00     0.136 HD
BRANCH  10  13
HETATM   13  C05 9Y2 A1201     -24.602  11.735  14.261  1.00  0.00     0.098 C
BRANCH  13  14
HETATM   14  C02 9Y2 A1201     -23.522  12.192  13.266  1.00  0.00    -0.030 C
HETATM   15  C01 9Y2 A1201     -22.926  11.047  12.461  1.00  0.00     0.011 C
HETATM   16  C03 9Y2 A1201     -22.377  12.812  14.026  1.00  0.00     0.011 C
HETATM   17  C04 9Y2 A1201     -24.098  13.213  12.282  1.00  0.00     0.011 C
ENDBRANCH  13  14
ENDBRANCH  10  13
ENDBRANCH   3   9
BRANCH   7  18
HETATM   18  C17 9Y2 A1201     -21.899   5.041  17.902  1.00  0.00     0.237 C
HETATM   19  O18 9Y2 A1201     -22.549   4.002  17.919  1.00  0.00    -0.274 OA
HETATM   20  N19 9Y2 A1201     -20.586   5.148  18.366  1.00  0.00    -0.203 N
HETATM   21  H19 9Y2 A1201     -20.092   6.037  18.292  1.00  0.00     0.139 HD
BRANCH  20  22
HETATM   22  C20 9Y2 A1201     -19.950   4.048  18.928  1.00  0.00     0.152 A
HETATM   23  N21 9Y2 A1201     -18.657   4.002  19.211  1.00  0.00    -0.236 NA
HETATM   24  C22 9Y2 A1201     -18.235   2.837  19.708  1.00  0.00     0.120 A
HETATM   25  C23 9Y2 A1201     -19.200   1.862  19.828  1.00  0.00     0.068 A
HETATM   26  S24 9Y2 A1201     -20.688   2.530  19.264  1.00  0.00    -0.064 SA
ENDBRANCH  20  22
ENDBRANCH   7  18
TORSDOF 5
