REMARK  8 active torsions:
REMARK  status: ('A' for Active; 'I' for Inactive)
REMARK    1  A    between atoms: CAO_2  and  OAW_3
REMARK    2  A    between atoms: OAW_3  and  CAY_4
REMARK    3  A    between atoms: CAY_4  and  CBC_6
REMARK    4  A    between atoms: CBD_10  and  NBF_15
REMARK    5  A    between atoms: CBE_18  and  CAX_21
REMARK    6  A    between atoms: NAV_23  and  SBG_25
REMARK    7  A    between atoms: SBG_25  and  CAT_28
REMARK    8  A    between atoms: CAT_28  and  CBA_29
ROOT
HETATM    1  CAA AZJ A1201      15.921  94.175  57.389  1.00  0.00     0.035 C
HETATM    2  CAO AZJ A1201      15.031  95.287  56.826  1.00  0.00     0.167 C
ENDROOT
BRANCH   2   3
HETATM    3  OAW AZJ A1201      15.714  96.552  56.895  1.00  0.00    -0.312 OA
BRANCH   3   4
HETATM    4  CAY AZJ A1201      14.935  97.644  56.605  1.00  0.00     0.296 C
HETATM    5  OAE AZJ A1201      13.955  97.948  57.289  1.00  0.00    -0.259 OA
BRANCH   4   6
HETATM    6  CBC AZJ A1201      15.350  98.411  55.485  1.00  0.00     0.073 A
HETATM    7  CAN AZJ A1201      16.367  97.888  54.670  1.00  0.00     0.038 A
HETATM    8  CBB AZJ A1201      16.814  98.566  53.536  1.00  0.00     0.089 A
HETATM    9  CAH AZJ A1201      17.880  97.980  52.757  1.00  0.00     0.102 C
HETATM   10  CBD AZJ A1201      16.213  99.786  53.177  1.00  0.00     0.127 A
HETATM   11  CAB AZJ A1201      13.771 100.339  55.769  1.00  0.00     0.039 C
HETATM   12  NAC AZJ A1201      18.732  97.525  52.124  1.00  0.00    -0.191 NA
HETATM   13  NAU AZJ A1201      15.254 100.295  53.982  1.00  0.00    -0.234 NA
HETATM   14  CAZ AZJ A1201      14.798  99.668  55.091  1.00  0.00     0.072 A
BRANCH  10  15
HETATM   15  NBF AZJ A1201      16.703 100.604  52.028  1.00  0.00    -0.258 NA
HETATM   16  CAQ AZJ A1201      17.577 100.787  49.712  1.00  0.00     0.029 C
HETATM   17  CAS AZJ A1201      16.673  99.984  50.671  1.00  0.00     0.092 C
HETATM   18  CBE AZJ A1201      17.143 102.292  49.698  1.00  0.00     0.086 C
HETATM   19  CAP AZJ A1201      17.038 102.905  51.108  1.00  0.00     0.029 C
HETATM   20  CAR AZJ A1201      16.174 102.007  51.996  1.00  0.00     0.092 C
BRANCH  18  21
HETATM   21  CAX AZJ A1201      18.087 103.156  48.854  1.00  0.00     0.289 C
HETATM   22  OAD AZJ A1201      19.314 103.057  48.946  1.00  0.00    -0.267 OA
HETATM   23  NAV AZJ A1201      17.427 104.047  48.091  1.00  0.00    -0.803 N
HETATM   24  HAV AZJ A1201      16.407 104.058  48.097  1.00  0.00     0.253 HD
BRANCH  23  25
HETATM   25  SBG AZJ A1201      18.251 105.128  47.141  1.00  0.00     2.571 S
HETATM   26  OAG AZJ A1201      19.154 105.981  48.045  1.00  0.00    -0.924 OA
HETATM   27  OAF AZJ A1201      17.219 106.038  46.455  1.00  0.00    -0.924 OA
BRANCH  25  28
HETATM   28  CAT AZJ A1201      19.319 104.282  45.881  1.00  0.00    -0.438 C
BRANCH  28  29
HETATM   29  CBA AZJ A1201      18.684 103.383  44.996  1.00  0.00     0.078 A
HETATM   30  CAM AZJ A1201      18.188 102.148  45.439  1.00  0.00     0.026 A
HETATM   31  CAK AZJ A1201      17.619 101.249  44.531  1.00  0.00     0.002 A
HETATM   32  CAI AZJ A1201      17.564 101.563  43.169  1.00  0.00     0.000 A
HETATM   33  CAJ AZJ A1201      18.081 102.779  42.715  1.00  0.00     0.002 A
HETATM   34  CAL AZJ A1201      18.656 103.676  43.624  1.00  0.00     0.026 A
ENDBRANCH  28  29
ENDBRANCH  25  28
ENDBRANCH  23  25
ENDBRANCH  18  21
ENDBRANCH  10  15
ENDBRANCH   4   6
ENDBRANCH   3   4
ENDBRANCH   2   3
TORSDOF 8
