REMARK  7 active torsions:
REMARK  status: ('A' for Active; 'I' for Inactive)
REMARK    1  A    between atoms: CBE_3  and  CBD_4
REMARK    2  A    between atoms: CBD_4  and  NAJ_5
REMARK    3  A    between atoms: CAO_12  and  NAT_27
REMARK    4  A    between atoms: CAU_28  and  CAW_31
REMARK    5  A    between atoms: CAW_31  and  CAX_32
REMARK    6  A    between atoms: CAX_32  and  CAY_33
REMARK    7  A    between atoms: CAY_33  and  OBA_35
ROOT
HETATM    1  CBF BF0 A 601     -27.674  -8.743 -15.007  1.00  0.00     0.005 C
HETATM    2  CBG BF0 A 601     -27.434  -7.353 -14.448  1.00  0.00     0.005 C
HETATM    3  CBE BF0 A 601     -26.336  -8.407 -14.330  1.00  0.00     0.003 C
ENDROOT
BRANCH   3   4
HETATM    4  CBD BF0 A 601     -25.984  -8.851 -12.878  1.00  0.00     0.088 C
BRANCH   4   5
HETATM    5  NAJ BF0 A 601     -25.934 -10.308 -12.595  1.00  0.00    -0.296 NA
HETATM    6  CAI BF0 A 601     -27.259 -10.996 -12.682  1.00  0.00     0.093 C
HETATM    7  CAR BF0 A 601     -27.260 -12.476 -12.410  1.00  0.00     0.094 C
HETATM    8  OAS BF0 A 601     -26.332 -13.147 -13.263  1.00  0.00    -0.386 OA
HETATM    9  CAQ BF0 A 601     -28.656 -13.091 -12.522  1.00  0.00     0.039 C
HETATM   10  CAP BF0 A 601     -28.674 -14.519 -12.044  1.00  0.00     0.024 C
HETATM   11  HAS BF0 A 601     -25.465 -12.765 -13.193  1.00  0.00     0.210 HD
HETATM   12  CAO BF0 A 601     -28.226 -14.446 -10.537  1.00  0.00     0.091 C
HETATM   13  CAH BF0 A 601     -28.499 -10.494 -11.860  1.00  0.00     0.057 C
HETATM   14  CAN BF0 A 601     -26.844 -13.782 -10.383  1.00  0.00     0.156 C
HETATM   15  CAG BF0 A 601     -28.429 -10.775 -10.475  1.00  0.00    -0.039 A
HETATM   16  CAM BF0 A 601     -26.812 -12.526 -10.960  1.00  0.00     0.058 C
HETATM   17  HAD BF0 A 601     -28.534 -11.522  -6.068  1.00  0.00     0.217 HD
HETATM   18  CAL BF0 A 601     -25.414 -11.906 -10.780  1.00  0.00     0.032 C
HETATM   19  CBC BF0 A 601     -27.699 -11.843 -10.090  1.00  0.00    -0.000 A
HETATM   20  CAF BF0 A 601     -29.238 -10.140  -9.555  1.00  0.00     0.006 A
HETATM   21  CAE BF0 A 601     -29.107 -10.618  -8.263  1.00  0.00     0.035 A
HETATM   22  CAB BF0 A 601     -27.656 -12.441  -8.864  1.00  0.00     0.110 A
HETATM   23  CAK BF0 A 601     -25.510 -10.460 -11.222  1.00  0.00     0.086 C
HETATM   24  OAD BF0 A 601     -28.156 -12.113  -6.708  1.00  0.00    -0.357 OA
HETATM   25  OAA BF0 A 601     -26.608 -13.297  -9.000  1.00  0.00    -0.336 OA
HETATM   26  CAC BF0 A 601     -28.181 -11.619  -7.974  1.00  0.00     0.103 A
BRANCH  12  27
HETATM   27  NAT BF0 A 601     -28.194 -15.779  -9.909  1.00  0.00    -0.253 N
HETATM   28  CAU BF0 A 601     -29.302 -16.538  -9.812  1.00  0.00     0.201 C
HETATM   29  HAT BF0 A 601     -27.312 -16.134  -9.539  1.00  0.00     0.131 HD
HETATM   30  OAV BF0 A 601     -30.419 -16.187 -10.190  1.00  0.00    -0.280 OA
BRANCH  28  31
HETATM   31  CAW BF0 A 601     -29.118 -17.898  -9.138  1.00  0.00     0.102 C
BRANCH  31  32
HETATM   32  CAX BF0 A 601     -30.172 -18.853  -9.723  1.00  0.00     0.115 C
BRANCH  32  33
HETATM   33  CAY BF0 A 601     -30.053 -19.003 -11.252  1.00  0.00     0.262 C
HETATM   34  OAZ BF0 A 601     -31.056 -19.220 -11.934  1.00  0.00    -0.265 OA
BRANCH  33  35
HETATM   35  OBA BF0 A 601     -28.801 -18.878 -11.772  1.00  0.00    -0.319 OA
HETATM   36  CBB BF0 A 601     -28.860 -19.034 -13.196  1.00  0.00     0.205 C
ENDBRANCH  33  35
ENDBRANCH  32  33
ENDBRANCH  31  32
ENDBRANCH  28  31
ENDBRANCH  12  27
ENDBRANCH   4   5
ENDBRANCH   3   4
TORSDOF 7
