MODEL        1
REMARK THIS MODEL IS IDENTICAL TO THE INPUT LIGAND AND NOT FROM DOCKING
REMARK 921   NORMALIZED FREE ENERGY PREDICTED BY IDOCK:   -9.62 KCAL/MOL
REMARK 922        TOTAL FREE ENERGY PREDICTED BY IDOCK:  -11.55 KCAL/MOL
REMARK 923 INTER-LIGAND FREE ENERGY PREDICTED BY IDOCK:  -10.74 KCAL/MOL
REMARK 924 INTRA-LIGAND FREE ENERGY PREDICTED BY IDOCK:   -0.80 KCAL/MOL
REMARK 927      BINDING AFFINITY PREDICTED BY RF-SCORE:    0.00 PKD
ROOT
HETATM    1  C28 0HK A2000       5.662  23.074 345.076  1.00  0.00    -0.488 C  
HETATM    2  C30 0HK A2000       7.072  22.564 344.805  1.00  0.00    -0.397 C  
HETATM    3  O29 0HK A2000       5.042  22.670 346.060  1.00  0.00    -0.577 OA 
HETATM    4  C43 0HK A2000       9.679  24.165 347.672  1.00  0.00    -0.462 A  
HETATM    5  C32 0HK A2000       8.089  23.227 345.711  1.00  0.00    -0.361 A  
HETATM    6  O33 0HK A2000       7.048  21.205 345.070  1.00  0.00    -0.660 OA 
HETATM    7  S44 0HK A2000       8.293  23.062 347.469  1.00  0.00    -0.506 SA 
HETATM    8  C31 0HK A2000       7.446  22.767 343.352  1.00  0.00    -0.355 A  
HETATM    9  S37 0HK A2000       7.971  21.548 342.172  1.00  0.00    -0.483 SA 
HETATM   10  C41 0HK A2000       9.099  24.119 345.401  1.00  0.00    -0.595 A  
HETATM   11  C34 0HK A2000       7.467  23.918 342.583  1.00  0.00    -0.476 A  
HETATM   12  H33 0HK A2000       6.813  21.078 345.982  1.00  0.00     0.000 HD 
HETATM   13  C42 0HK A2000       9.902  24.593 346.392  1.00  0.00    -0.485 A  
HETATM   14  C36 0HK A2000       8.195  22.622 340.768  1.00  0.00    -0.236 A  
HETATM   15  C35 0HK A2000       7.849  23.840 341.279  1.00  0.00    -0.354 A  
ENDROOT
BRANCH   1  16
HETATM   16  O11 0HK A2000       5.272  24.294 344.486  1.00  0.00    -0.346 OA 
BRANCH  16  17
HETATM   17  C5  0HK A2000       4.541  25.219 345.256  1.00  0.00    -0.443 C  
HETATM   18  C9  0HK A2000       6.093  27.214 343.789  1.00  0.00    -0.483 C  
HETATM   19  C4  0HK A2000       3.953  26.304 344.370  1.00  0.00    -0.768 C  
HETATM   20  C3  0HK A2000       4.766  27.574 344.417  1.00  0.00    -0.401 C  
HETATM   21  O10 0HK A2000       7.326  27.838 344.109  1.00  0.00     0.427 OA 
HETATM   22  C8  0HK A2000       6.914  26.796 344.957  1.00  0.00    -0.473 C  
HETATM   23  C7  0HK A2000       5.998  27.074 346.117  1.00  0.00    -0.297 C  
HETATM   24  N2  0HK A2000       5.073  28.067 345.704  1.00  0.00    -0.386 N  
HETATM   25  C6  0HK A2000       5.387  25.730 346.420  1.00  0.00    -0.509 C  
HETATM   26  C12 0HK A2000       5.559  29.455 345.708  1.00  0.00    -0.171 C  
HETATM   27  C1  0HK A2000       3.953  28.199 346.604  1.00  0.00    -0.461 C  
ENDBRANCH  16  17
ENDBRANCH   1  16
TORSDOF 2
ENDMDL
