REMARK  5 active torsions:
REMARK  status: ('A' for Active; 'I' for Inactive)
REMARK    1  A    between atoms: C14_15  and  C16_19
REMARK    2  A    between atoms: C16_19  and  N3_22
REMARK    3  A    between atoms: N3_22  and  C19_24
REMARK    4  A    between atoms: C19_24  and  C20_25
REMARK    5  A    between atoms: C19_24  and  C22_27
ROOT
HETATM    1  C4  H8D A2001     -26.390 -13.029   8.218  1.00  0.00     0.020 A
HETATM    2  C1  H8D A2001     -25.758 -13.526   7.152  1.00  0.00     0.028 A
HETATM    3  C3  H8D A2001     -24.920 -14.542   7.295  1.00  0.00     0.008 A
HETATM    4  C6  H8D A2001     -24.632 -15.145   8.439  1.00  0.00    -0.011 A
HETATM    5  C2  H8D A2001     -25.261 -14.670   9.590  1.00  0.00     0.009 A
HETATM    6  C9  H8D A2001     -23.753 -16.221   8.598  1.00  0.00    -0.022 C
HETATM    7  C11 H8D A2001     -23.744 -16.937   7.397  1.00  0.00     0.111 C
HETATM    8  C5  H8D A2001     -26.156 -13.593   9.475  1.00  0.00     0.002 A
HETATM    9  C15 H8D A2001     -23.439 -16.042   6.200  1.00  0.00     0.006 C
HETATM   10  N2  H8D A2001     -22.703 -17.975   7.455  1.00  0.00    -0.294 NA
HETATM   11  C13 H8D A2001     -22.957 -18.790   8.642  1.00  0.00     0.100 C
HETATM   12  C7  H8D A2001     -24.330 -14.986   6.217  1.00  0.00    -0.007 A
HETATM   13  C12 H8D A2001     -22.791 -18.789   6.311  1.00  0.00     0.105 C
HETATM   14  C8  H8D A2001     -24.824 -14.189   5.269  1.00  0.00     0.065 A
HETATM   15  C14 H8D A2001     -22.698 -18.023   9.927  1.00  0.00     0.091 C
HETATM   16  H1  H8D A2001     -26.195 -12.592   5.321  1.00  0.00     0.133 HD
HETATM   17  C10 H8D A2001     -23.457 -16.856   9.811  1.00  0.00    -0.009 C
HETATM   18  N1  H8D A2001     -25.681 -13.312   5.828  1.00  0.00    -0.264 NA
ENDROOT
BRANCH  15  19
HETATM   19  C16 H8D A2001     -22.906 -18.908  11.147  1.00  0.00     0.102 C
HETATM   20  O1  H8D A2001     -24.112 -18.969  11.761  1.00  0.00    -0.353 OA
HETATM   21  H1  H8D A2001     -24.860 -18.461  11.470  1.00  0.00     0.218 HD
BRANCH  19  22
HETATM   22  N3  H8D A2001     -21.822 -19.644  11.568  1.00  0.00    -0.267 NA
HETATM   23  H3  H8D A2001     -20.968 -19.662  11.010  1.00  0.00     0.130 HD
BRANCH  22  24
HETATM   24  C19 H8D A2001     -21.896 -20.388  12.796  1.00  0.00     0.085 C
BRANCH  24  25
HETATM   25  C20 H8D A2001     -21.625 -21.859  12.564  1.00  0.00     0.018 C
HETATM   26  C21 H8D A2001     -22.857 -22.526  11.957  1.00  0.00     0.005 C
ENDBRANCH  24  25
BRANCH  24  27
HETATM   27  C22 H8D A2001     -20.888 -19.860  13.784  1.00  0.00     0.174 C
HETATM   28  O2  H8D A2001     -21.372 -18.654  14.340  1.00  0.00    -0.393 OA
HETATM   29  H2  H8D A2001     -20.736 -18.321  14.963  1.00  0.00     0.209 HD
ENDBRANCH  24  27
ENDBRANCH  22  24
ENDBRANCH  19  22
ENDBRANCH  15  19
TORSDOF 5
