MODEL        1
REMARK THIS MODEL IS IDENTICAL TO THE INPUT LIGAND AND NOT FROM DOCKING
REMARK 921   NORMALIZED FREE ENERGY PREDICTED BY IDOCK:   -5.20 KCAL/MOL
REMARK 922        TOTAL FREE ENERGY PREDICTED BY IDOCK:   -7.15 KCAL/MOL
REMARK 923 INTER-LIGAND FREE ENERGY PREDICTED BY IDOCK:   -6.72 KCAL/MOL
REMARK 924 INTRA-LIGAND FREE ENERGY PREDICTED BY IDOCK:   -0.43 KCAL/MOL
REMARK 927      BINDING AFFINITY PREDICTED BY RF-SCORE:    0.00 PKD
ROOT
HETATM    1  C1  ZMA A 401      81.654 -15.454  49.157  1.00  0.00    -0.174 A  
HETATM    2  C2  ZMA A 401      82.575 -15.576  50.188  1.00  0.00    -0.256 A  
HETATM    3  C3  ZMA A 401      82.264 -16.320  51.318  1.00  0.00    -0.154 A  
HETATM    4  O4  ZMA A 401      83.193 -16.434  52.336  1.00  0.00    -0.094 OA 
HETATM    5  C5  ZMA A 401      81.018 -16.940  51.406  1.00  0.00    -0.224 A  
HETATM    6  C6  ZMA A 401      80.092 -16.820  50.375  1.00  0.00    -0.268 A  
HETATM    7  H4  ZMA A 401      82.980 -16.943  53.109  1.00  0.00     0.000 HD 
HETATM    8  C7  ZMA A 401      80.414 -16.073  49.248  1.00  0.00    -0.015 A  
ENDROOT
BRANCH   8   9
HETATM    9  C8  ZMA A 401      79.449 -15.921  48.126  1.00  0.00    -0.270 C  
BRANCH   9  10
HETATM   10  C9  ZMA A 401      79.523 -14.663  47.331  1.00  0.00    -0.203 C  
BRANCH  10  11
HETATM   11  N10 ZMA A 401      78.548 -14.461  46.299  1.00  0.00    -0.306 NA 
HETATM   12  H10 ZMA A 401      78.611 -14.980  45.423  1.00  0.00     0.000 HD 
BRANCH  11  13
HETATM   13  C11 ZMA A 401      77.487 -13.528  46.507  1.00  0.00    -0.333 C  
HETATM   14  N12 ZMA A 401      76.707 -13.123  45.484  1.00  0.00    -0.330 NA 
HETATM   15  C18 ZMA A 401      75.688 -12.211  45.722  1.00  0.00    -0.406 A  
HETATM   16  N19 ZMA A 401      74.727 -11.620  44.878  1.00  0.00    -0.358 NA 
HETATM   17  C20 ZMA A 401      73.966 -10.790  45.670  1.00  0.00    -0.428 A  
HETATM   18  N17 ZMA A 401      74.435 -10.873  46.921  1.00  0.00    -0.439 NA 
HETATM   19 2H15 ZMA A 401      76.960 -11.264  49.652  1.00  0.00     0.000 HD 
HETATM   20 1H15 ZMA A 401      75.334 -10.994  49.490  1.00  0.00     0.000 HD 
HETATM   21  N16 ZMA A 401      75.491 -11.749  46.940  1.00  0.00    -0.341 NA 
HETATM   22  N15 ZMA A 401      76.084 -11.663  49.314  1.00  0.00    -0.393 NA 
HETATM   23  C14 ZMA A 401      76.295 -12.165  47.988  1.00  0.00    -0.269 C  
HETATM   24  N13 ZMA A 401      77.281 -13.045  47.756  1.00  0.00    -0.314 NA 
BRANCH  17  25
HETATM   25  C21 ZMA A 401      72.820  -9.930  45.241  1.00  0.00    -0.208 A  
HETATM   26  C23 ZMA A 401      71.518  -8.502  44.100  1.00  0.00    -0.219 A  
HETATM   27  C22 ZMA A 401      72.764  -9.134  44.102  1.00  0.00    -0.620 A  
HETATM   28  O25 ZMA A 401      71.657  -9.767  45.892  1.00  0.00     0.275 OA 
HETATM   29  C24 ZMA A 401      70.845  -8.921  45.240  1.00  0.00    -0.377 A  
ENDBRANCH  17  25
ENDBRANCH  11  13
ENDBRANCH  10  11
ENDBRANCH   9  10
ENDBRANCH   8   9
TORSDOF 5
ENDMDL
