MODEL        1
REMARK THIS MODEL IS IDENTICAL TO THE INPUT LIGAND AND NOT FROM DOCKING
REMARK 921   NORMALIZED FREE ENERGY PREDICTED BY IDOCK:   -5.37 KCAL/MOL
REMARK 922        TOTAL FREE ENERGY PREDICTED BY IDOCK:   -7.27 KCAL/MOL
REMARK 923 INTER-LIGAND FREE ENERGY PREDICTED BY IDOCK:   -6.94 KCAL/MOL
REMARK 924 INTRA-LIGAND FREE ENERGY PREDICTED BY IDOCK:   -0.34 KCAL/MOL
REMARK 927      BINDING AFFINITY PREDICTED BY RF-SCORE:    0.00 PKD
ROOT
HETATM    1  C1  ZMA A 401     -10.992  -8.796  60.617  1.00  0.00    -0.276 A  
HETATM    2  C7  ZMA A 401     -11.492  -8.135  59.501  1.00  0.00    -0.344 A  
HETATM    3  O4  ZMA A 401     -12.231  -6.638  63.286  1.00  0.00    -0.192 OA 
HETATM    4  C6  ZMA A 401     -12.230  -6.969  59.657  1.00  0.00    -0.027 A  
HETATM    5  C2  ZMA A 401     -11.241  -8.297  61.889  1.00  0.00    -0.252 A  
HETATM    6  C5  ZMA A 401     -12.476  -6.469  60.928  1.00  0.00    -0.248 A  
HETATM    7  H4  ZMA A 401     -11.895  -7.092  64.050  1.00  0.00     0.000 HD 
HETATM    8  C3  ZMA A 401     -11.984  -7.133  62.045  1.00  0.00    -0.267 A  
ENDROOT
BRANCH   2   9
HETATM    9  C8  ZMA A 401     -11.208  -8.677  58.101  1.00  0.00    -0.395 C  
BRANCH   9  10
HETATM   10  C9  ZMA A 401      -9.746  -9.104  58.006  1.00  0.00    -0.212 C  
BRANCH  10  11
HETATM   11  N10 ZMA A 401      -9.420  -9.544  56.644  1.00  0.00    -0.203 NA 
HETATM   12  H10 ZMA A 401      -9.543 -10.509  56.336  1.00  0.00     0.000 HD 
BRANCH  11  13
HETATM   13  C11 ZMA A 401      -8.953  -8.593  55.842  1.00  0.00    -0.037 C  
HETATM   14  N12 ZMA A 401      -8.585  -8.857  54.578  1.00  0.00    -0.432 NA 
HETATM   15  C18 ZMA A 401      -8.104  -7.874  53.800  1.00  0.00    -0.385 A  
HETATM   16  N19 ZMA A 401      -7.676  -7.829  52.544  1.00  0.00    -0.382 NA 
HETATM   17  C20 ZMA A 401      -7.313  -6.565  52.320  1.00  0.00    -0.388 A  
HETATM   18  N17 ZMA A 401      -7.525  -5.852  53.428  1.00  0.00    -0.484 NA 
HETATM   19 2H15 ZMA A 401      -8.548  -4.967  57.124  1.00  0.00     0.000 HD 
HETATM   20 1H15 ZMA A 401      -7.909  -4.350  55.598  1.00  0.00     0.000 HD 
HETATM   21  N16 ZMA A 401      -7.981  -6.582  54.309  1.00  0.00    -0.111 NA 
HETATM   22  N15 ZMA A 401      -8.266  -5.125  56.156  1.00  0.00    -0.284 NA 
HETATM   23  C14 ZMA A 401      -8.365  -6.342  55.626  1.00  0.00     0.016 C  
HETATM   24  N13 ZMA A 401      -8.833  -7.359  56.358  1.00  0.00    -0.193 NA 
BRANCH  17  25
HETATM   25  C21 ZMA A 401      -6.809  -6.054  51.131  1.00  0.00    -0.260 A  
HETATM   26  C23 ZMA A 401      -6.081  -5.796  49.121  1.00  0.00    -0.514 A  
HETATM   27  C22 ZMA A 401      -6.554  -6.688  49.991  1.00  0.00    -0.659 A  
HETATM   28  O25 ZMA A 401      -6.492  -4.739  50.984  1.00  0.00    -0.219 OA 
HETATM   29  C24 ZMA A 401      -6.034  -4.598  49.703  1.00  0.00    -0.192 A  
ENDBRANCH  17  25
ENDBRANCH  11  13
ENDBRANCH  10  11
ENDBRANCH   9  10
ENDBRANCH   2   9
TORSDOF 5
ENDMDL
