MODEL        1
REMARK THIS MODEL IS IDENTICAL TO THE INPUT LIGAND AND NOT FROM DOCKING
REMARK 921   NORMALIZED FREE ENERGY PREDICTED BY IDOCK:   -8.74 KCAL/MOL
REMARK 922        TOTAL FREE ENERGY PREDICTED BY IDOCK:  -11.08 KCAL/MOL
REMARK 923 INTER-LIGAND FREE ENERGY PREDICTED BY IDOCK:  -10.78 KCAL/MOL
REMARK 924 INTRA-LIGAND FREE ENERGY PREDICTED BY IDOCK:   -0.30 KCAL/MOL
REMARK 927      BINDING AFFINITY PREDICTED BY RF-SCORE:    0.00 PKD
ROOT
HETATM    1  O2  68H A 504     -14.861 -32.671  17.980  1.00  0.00    -0.616 OA 
HETATM    2  H2  68H A 504     -14.170 -33.032  18.523  1.00  0.00     0.000 HD 
HETATM    3  C2  68H A 504     -15.948 -33.592  17.778  1.00  0.00    -0.415 C  
ENDROOT
BRANCH   3   4
HETATM    4  C12 68H A 504     -17.048 -33.017  16.913  1.00  0.00    -0.702 A  
HETATM    5  C13 68H A 504     -17.095 -33.309  15.552  1.00  0.00    -0.677 A  
HETATM    6  C8  68H A 504     -18.116 -32.808  14.724  1.00  0.00    -0.678 A  
HETATM    7  H1  68H A 504     -18.805 -31.282  19.161  1.00  0.00     0.000 HD 
HETATM    8  C9  68H A 504     -19.109 -31.988  15.266  1.00  0.00    -0.882 A  
HETATM    9  C10 68H A 504     -19.110 -31.673  16.627  1.00  0.00    -0.923 A  
HETATM   10  O1  68H A 504     -18.123 -31.835  18.798  1.00  0.00    -0.742 OA 
HETATM   11  C11 68H A 504     -18.110 -32.155  17.479  1.00  0.00    -0.592 A  
BRANCH   6  12
HETATM   12  C1  68H A 504     -18.080 -33.172  13.277  1.00  0.00    -0.405 C  
HETATM   13  O3  68H A 504     -19.294 -32.900  12.566  1.00  0.00    -0.728 OA 
HETATM   14  H3  68H A 504     -20.027 -33.364  12.953  1.00  0.00     0.000 HD 
BRANCH  12  15
HETATM   15  C3  68H A 504     -16.903 -32.427  12.655  1.00  0.00    -0.309 C  
BRANCH  15  16
HETATM   16  N1  68H A 504     -16.890 -32.557  11.208  1.00  0.00    -0.894 NA 
HETATM   17  H1  68H A 504     -17.746 -32.828  10.725  1.00  0.00     0.000 HD 
HETATM   18  C6  68H A 504     -15.164 -30.883  10.698  1.00  0.00    -0.744 C  
HETATM   19  C4  68H A 504     -15.681 -32.309  10.427  1.00  0.00    -0.415 C  
HETATM   20  C7  68H A 504     -16.064 -32.429   8.942  1.00  0.00    -0.489 C  
HETATM   21  C5  68H A 504     -14.620 -33.369  10.805  1.00  0.00    -0.570 C  
ENDBRANCH  15  16
ENDBRANCH  12  15
ENDBRANCH   6  12
ENDBRANCH   3   4
TORSDOF 4
ENDMDL
