REMARK  3 active torsions:
REMARK  status: ('A' for Active; 'I' for Inactive)
REMARK    1  A    between atoms: N1_2  and  C3_4
REMARK    2  A    between atoms: C3_4  and  C4_5
REMARK    3  A    between atoms: C4_5  and  C5_6
ROOT
HETATM    1  C1 BD7V A1201      14.808  32.837  18.106  1.00  0.00     0.104 C
HETATM    2  N1 BD7V A1201      14.677  33.217  19.522  1.00  0.00    -0.308 NA
HETATM    3  C2 BD7V A1201      14.643  32.000  20.349  1.00  0.00     0.104 C
ENDROOT
BRANCH   2   4
HETATM    4  C3 BD7V A1201      15.818  34.061  19.915  1.00  0.00     0.088 C
BRANCH   4   5
HETATM    5  C4 BD7V A1201      15.343  35.458  20.304  1.00  0.00     0.043 C
BRANCH   5   6
HETATM    6  C5 BD7V A1201      15.754  35.727  21.733  1.00  0.00    -0.017 C
HETATM    7  C6 BD7V A1201      16.832  36.440  22.115  1.00  0.00    -0.012 C
HETATM    8  C15BD7V A1201      17.803  37.105  21.170  1.00  0.00     0.012 A
HETATM    9  C14BD7V A1201      18.247  38.425  21.362  1.00  0.00     0.084 A
HETATM   10  C16BD7V A1201      19.189  38.972  20.486  1.00  0.00     0.033 A
HETATM   11  O1 BD7V A1201      17.822  39.257  22.374  1.00  0.00    -0.339 OA
HETATM   12  C13BD7V A1201      16.702  39.017  23.224  1.00  0.00     0.203 C
HETATM   13  C17BD7V A1201      19.706  38.223  19.432  1.00  0.00     0.003 A
HETATM   14  C12BD7V A1201      17.027  37.857  24.132  1.00  0.00    -0.014 A
HETATM   15  C18BD7V A1201      19.279  36.910  19.253  1.00  0.00     0.001 A
HETATM   16  C7 BD7V A1201      17.090  36.591  23.581  1.00  0.00    -0.012 A
HETATM   17  C19BD7V A1201      18.351  36.351  20.130  1.00  0.00     0.011 A
HETATM   18  C8 BD7V A1201      17.401  35.486  24.375  1.00  0.00     0.009 A
HETATM   19  C9 BD7V A1201      17.654  35.666  25.736  1.00  0.00     0.001 A
HETATM   20  C10BD7V A1201      17.597  36.946  26.291  1.00  0.00     0.000 A
HETATM   21  C11BD7V A1201      17.280  38.046  25.491  1.00  0.00     0.006 A
ENDBRANCH   5   6
ENDBRANCH   4   5
ENDBRANCH   2   4
TORSDOF 3
