MODEL        1
REMARK THIS MODEL IS IDENTICAL TO THE INPUT LIGAND AND NOT FROM DOCKING
REMARK 921   NORMALIZED FREE ENERGY PREDICTED BY IDOCK:   -7.47 KCAL/MOL
REMARK 922        TOTAL FREE ENERGY PREDICTED BY IDOCK:   -9.98 KCAL/MOL
REMARK 923 INTER-LIGAND FREE ENERGY PREDICTED BY IDOCK:   -9.65 KCAL/MOL
REMARK 924 INTRA-LIGAND FREE ENERGY PREDICTED BY IDOCK:   -0.33 KCAL/MOL
REMARK 927      BINDING AFFINITY PREDICTED BY RF-SCORE:    0.00 PKD
ROOT
HETATM    1  C1  ZMA A1201       1.762 103.740  56.316  1.00  0.00    -0.420 A  
HETATM    2  C7  ZMA A1201       0.805 102.803  55.945  1.00  0.00    -0.355 A  
HETATM    3  O4  ZMA A1201      -0.074 106.845  55.765  1.00  0.00    -0.195 OA 
HETATM    4  C6  ZMA A1201      -0.447 103.221  55.510  1.00  0.00    -0.502 A  
HETATM    5  C2  ZMA A1201       1.468 105.097  56.256  1.00  0.00    -0.280 A  
HETATM    6  C5  ZMA A1201      -0.742 104.578  55.451  1.00  0.00    -0.383 A  
HETATM    7  H4  ZMA A1201      -0.930 107.131  55.469  1.00  0.00     0.000 HD 
HETATM    8  C3  ZMA A1201       0.215 105.515  55.823  1.00  0.00    -0.266 A  
ENDROOT
BRANCH   2   9
HETATM    9  C8  ZMA A1201       1.133 101.329  56.006  1.00  0.00    -0.433 C  
BRANCH   9  10
HETATM   10  C9  ZMA A1201       2.056 100.992  54.838  1.00  0.00    -0.324 C  
BRANCH  10  11
HETATM   11  N10 ZMA A1201       2.343  99.573  54.748  1.00  0.00    -0.327 NA 
HETATM   12  H10 ZMA A1201       3.195  99.200  55.167  1.00  0.00     0.000 HD 
BRANCH  11  13
HETATM   13  C11 ZMA A1201       1.487  98.743  54.112  1.00  0.00    -0.319 C  
HETATM   14  N12 ZMA A1201       1.804  97.437  53.958  1.00  0.00    -0.446 NA 
HETATM   15  C18 ZMA A1201       0.907  96.658  53.314  1.00  0.00    -0.445 A  
HETATM   16  N19 ZMA A1201       0.971  95.335  53.030  1.00  0.00    -0.362 NA 
HETATM   17  C20 ZMA A1201      -0.197  95.102  52.373  1.00  0.00    -0.411 A  
HETATM   18  N17 ZMA A1201      -1.020  96.162  52.209  1.00  0.00    -0.693 NA 
HETATM   19 2H15 ZMA A1201      -1.963  99.870  52.620  1.00  0.00     0.000 HD 
HETATM   20 1H15 ZMA A1201      -2.388  98.271  52.018  1.00  0.00     0.000 HD 
HETATM   21  N16 ZMA A1201      -0.237  97.124  52.841  1.00  0.00    -0.325 NA 
HETATM   22  N15 ZMA A1201      -1.732  98.884  52.501  1.00  0.00     0.006 NA 
HETATM   23  C14 ZMA A1201      -0.558  98.411  52.987  1.00  0.00    -0.336 C  
HETATM   24  N13 ZMA A1201       0.313  99.225  53.628  1.00  0.00    -0.399 NA 
BRANCH  17  25
HETATM   25  C21 ZMA A1201      -0.564  93.751  51.863  1.00  0.00    -0.355 A  
HETATM   26  C23 ZMA A1201      -0.409  91.695  51.204  1.00  0.00    -0.597 A  
HETATM   27  C22 ZMA A1201       0.359  92.748  51.669  1.00  0.00    -0.669 A  
HETATM   28  O25 ZMA A1201      -1.847  93.412  51.563  1.00  0.00    -0.580 OA 
HETATM   29  C24 ZMA A1201      -1.741  92.098  51.141  1.00  0.00    -0.231 A  
ENDBRANCH  17  25
ENDBRANCH  11  13
ENDBRANCH  10  11
ENDBRANCH   9  10
ENDBRANCH   2   9
TORSDOF 5
ENDMDL
