MODEL        1
REMARK THIS MODEL IS IDENTICAL TO THE INPUT LIGAND AND NOT FROM DOCKING
REMARK 921   NORMALIZED FREE ENERGY PREDICTED BY IDOCK:   -1.48 KCAL/MOL
REMARK 922        TOTAL FREE ENERGY PREDICTED BY IDOCK:   -1.84 KCAL/MOL
REMARK 923 INTER-LIGAND FREE ENERGY PREDICTED BY IDOCK:   -1.65 KCAL/MOL
REMARK 924 INTRA-LIGAND FREE ENERGY PREDICTED BY IDOCK:   -0.18 KCAL/MOL
REMARK 927      BINDING AFFINITY PREDICTED BY RF-SCORE:    0.00 PKD
ROOT
HETATM    1  C   7AB A 401      -9.228  32.832   6.487  1.00  0.00    -0.714 C  
HETATM    2  C20 7AB A 401     -10.449  32.068   7.007  1.00  0.00    -0.574 C  
HETATM    3  C13 7AB A 401     -10.244  31.017   8.070  1.00  0.00    -0.520 C  
HETATM    4  C14 7AB A 401     -11.267  30.291   8.552  1.00  0.00     0.591 C  
HETATM    5  C12 7AB A 401      -8.910  30.795   8.569  1.00  0.00    -0.249 C  
HETATM    6  C15 7AB A 401     -12.643  30.541   8.089  1.00  0.00     6.463 C  
HETATM    7  C11 7AB A 401      -7.848  31.455   8.137  1.00  0.00    -0.253 C  
HETATM    8  C10 7AB A 401      -7.881  32.495   7.100  1.00  0.00    -0.396 C  
HETATM    9  C9  7AB A 401      -6.747  33.131   6.706  1.00  0.00    -0.424 C  
HETATM   10  C19 7AB A 401      -5.429  32.769   7.352  1.00  0.00    -0.570 C  
ENDROOT
BRANCH   9  11
HETATM   11  C8  7AB A 401      -6.835  34.185   5.653  1.00  0.00    -0.375 C  
HETATM   12  C7  7AB A 401      -5.855  34.898   5.100  1.00  0.00    -0.455 C  
BRANCH  12  13
HETATM   13  C6  7AB A 401      -6.027  36.002   4.095  1.00  0.00    -0.443 C  
HETATM   14  C1  7AB A 401      -4.751  36.693   3.626  1.00  0.00    -0.428 C  
HETATM   15  C16 7AB A 401      -3.637  36.686   4.690  1.00  0.00    -0.580 C  
HETATM   16  C17 7AB A 401      -4.267  36.022   2.340  1.00  0.00    -0.282 C  
HETATM   17  C2  7AB A 401      -5.062  38.193   3.464  1.00  0.00    -0.676 C  
HETATM   18  C3  7AB A 401      -6.230  38.570   2.558  1.00  0.00    -0.590 C  
HETATM   19  C4  7AB A 401      -7.292  37.492   2.430  1.00  0.00    -0.654 C  
HETATM   20  C5  7AB A 401      -7.143  36.319   3.382  1.00  0.00    -0.540 C  
HETATM   21  C18 7AB A 401      -8.309  35.380   3.280  1.00  0.00     0.014 C  
ENDBRANCH  12  13
ENDBRANCH   9  11
TORSDOF 2
ENDMDL
