MODEL        1
REMARK THIS MODEL IS IDENTICAL TO THE INPUT LIGAND AND NOT FROM DOCKING
REMARK 921   NORMALIZED FREE ENERGY PREDICTED BY IDOCK:   -7.60 KCAL/MOL
REMARK 922        TOTAL FREE ENERGY PREDICTED BY IDOCK:   -7.68 KCAL/MOL
REMARK 923 INTER-LIGAND FREE ENERGY PREDICTED BY IDOCK:   -8.04 KCAL/MOL
REMARK 924 INTRA-LIGAND FREE ENERGY PREDICTED BY IDOCK:    0.36 KCAL/MOL
REMARK 927      BINDING AFFINITY PREDICTED BY RF-SCORE:    0.00 PKD
ROOT
HETATM    1  C11 XF5 A1359     -23.273 -13.121  25.416  1.00  0.00    -0.414 C  
HETATM    2  C12 XF5 A1359     -24.521 -13.461  24.722  1.00  0.00    -0.092 C  
HETATM    3  N13 XF5 A1359     -25.427 -12.312  24.852  1.00  0.00    -0.808 NA 
HETATM    4  C14 XF5 A1359     -24.905 -11.155  24.129  1.00  0.00    -0.398 C  
HETATM    5  H13 XF5 A1359     -25.619 -12.091  25.829  1.00  0.00     0.000 HD 
HETATM    6  C15 XF5 A1359     -23.597 -10.647  24.648  1.00  0.00    -0.351 C  
HETATM    7  N10 XF5 A1359     -22.709 -11.770  25.081  1.00  0.00    -0.379 NA 
ENDROOT
BRANCH   7   8
HETATM    8  C3  XF5 A1359     -21.381 -11.556  25.270  1.00  0.00    -0.460 A  
HETATM    9  C4  XF5 A1359     -20.763 -11.977  26.394  1.00  0.00    -0.715 A  
HETATM   10  C5  XF5 A1359     -21.196 -12.619  27.487  1.00  0.00    -0.685 A  
HETATM   11  C6  XF5 A1359     -20.170 -12.804  28.316  1.00  0.00    -0.393 A  
HETATM   12  N7  XF5 A1359     -19.083 -12.271  27.753  1.00  0.00    -0.607 NA 
HETATM   13  C8  XF5 A1359     -19.441 -11.762  26.569  1.00  0.00    -0.455 A  
HETATM   14  H7  XF5 A1359     -18.146 -12.255  28.155  1.00  0.00     0.000 HD 
HETATM   15  C9  XF5 A1359     -18.694 -11.135  25.652  1.00  0.00    -0.718 A  
HETATM   16  C1  XF5 A1359     -19.261 -10.677  24.479  1.00  0.00    -0.777 A  
HETATM   17  C2  XF5 A1359     -20.619 -10.898  24.285  1.00  0.00    -0.792 A  
ENDBRANCH   7   8
TORSDOF 1
ENDMDL
