MODEL        1
REMARK THIS MODEL IS IDENTICAL TO THE INPUT LIGAND AND NOT FROM DOCKING
REMARK 921   NORMALIZED FREE ENERGY PREDICTED BY IDOCK:   -8.28 KCAL/MOL
REMARK 922        TOTAL FREE ENERGY PREDICTED BY IDOCK:  -11.71 KCAL/MOL
REMARK 923 INTER-LIGAND FREE ENERGY PREDICTED BY IDOCK:  -11.19 KCAL/MOL
REMARK 924 INTRA-LIGAND FREE ENERGY PREDICTED BY IDOCK:   -0.52 KCAL/MOL
REMARK 927      BINDING AFFINITY PREDICTED BY RF-SCORE:    0.00 PKD
ROOT
HETATM    1  C18 1Q5 A 401     -41.002 -18.252  33.256  1.00  0.00    -0.630 C  
HETATM    2  C13 1Q5 A 401     -41.176 -19.302  34.303  1.00  0.00    -0.120 A  
HETATM    3  C14 1Q5 A 401     -42.401 -19.406  34.927  1.00  0.00    -0.473 A  
HETATM    4  C15 1Q5 A 401     -42.621 -20.356  35.903  1.00  0.00    -0.410 A  
HETATM    5  N12 1Q5 A 401     -40.142 -20.103  34.600  1.00  0.00    -0.643 NA 
HETATM    6  C16 1Q5 A 401     -41.511 -21.245  36.246  1.00  0.00    -0.471 A  
HETATM    7  C11 1Q5 A 401     -40.245 -21.054  35.527  1.00  0.00    -0.406 A  
HETATM    8  C17 1Q5 A 401     -41.670 -22.305  37.296  1.00  0.00    -0.680 C  
ENDROOT
BRANCH   4   9
HETATM    9  N19 1Q5 A 401     -43.811 -20.471  36.518  1.00  0.00    -0.355 NA 
HETATM   10  H19 1Q5 A 401     -43.875 -20.919  37.432  1.00  0.00     0.000 HD 
BRANCH   9  11
HETATM   11  C20 1Q5 A 401     -44.996 -19.957  35.878  1.00  0.00    -0.281 C  
BRANCH  11  12
HETATM   12  C21 1Q5 A 401     -45.795 -21.066  35.229  1.00  0.00    -0.467 C  
HETATM   13  C22 1Q5 A 401     -44.886 -22.010  34.488  1.00  0.00    -0.537 C  
ENDBRANCH  11  12
BRANCH  11  14
HETATM   14  C23 1Q5 A 401     -45.855 -19.271  36.915  1.00  0.00    -0.500 C  
HETATM   15  C24 1Q5 A 401     -45.009 -18.430  37.839  1.00  0.00    -0.714 C  
ENDBRANCH  11  14
ENDBRANCH   9  11
ENDBRANCH   4   9
BRANCH   7  16
HETATM   16  O10 1Q5 A 401     -39.201 -21.855  35.817  1.00  0.00    -0.344 OA 
BRANCH  16  17
HETATM   17  C1  1Q5 A 401     -37.999 -21.731  35.204  1.00  0.00    -0.283 A  
HETATM   18  C6  1Q5 A 401     -37.752 -22.233  33.840  1.00  0.00    -0.272 A  
HETATM   19  C5  1Q5 A 401     -36.493 -22.079  33.286  1.00  0.00    -0.165 A  
HETATM   20  C8  1Q5 A 401     -38.858 -22.894  33.075  1.00  0.00    -0.787 C  
HETATM   21  C4  1Q5 A 401     -35.468 -21.461  34.003  1.00  0.00    -0.532 A  
HETATM   22  C3  1Q5 A 401     -35.653 -20.979  35.288  1.00  0.00    -0.535 A  
HETATM   23  C7  1Q5 A 401     -34.109 -21.301  33.386  1.00  0.00    -0.712 C  
HETATM   24  C2  1Q5 A 401     -36.879 -21.095  35.911  1.00  0.00    -0.325 A  
HETATM   25  C9  1Q5 A 401     -37.085 -20.579  37.295  1.00  0.00    -0.546 C  
ENDBRANCH  16  17
ENDBRANCH   7  16
TORSDOF 6
ENDMDL
