MODEL        1
REMARK THIS MODEL IS IDENTICAL TO THE INPUT LIGAND AND NOT FROM DOCKING
REMARK 921   NORMALIZED FREE ENERGY PREDICTED BY IDOCK:  -10.12 KCAL/MOL
REMARK 922        TOTAL FREE ENERGY PREDICTED BY IDOCK:  -11.31 KCAL/MOL
REMARK 923 INTER-LIGAND FREE ENERGY PREDICTED BY IDOCK:  -11.30 KCAL/MOL
REMARK 924 INTRA-LIGAND FREE ENERGY PREDICTED BY IDOCK:   -0.00 KCAL/MOL
REMARK 927      BINDING AFFINITY PREDICTED BY RF-SCORE:    0.00 PKD
ROOT
HETATM    1  C10 DL2 A 412    -234.989  48.626  36.057  1.00  0.00    -0.681 C  
HETATM    2  C8  DL2 A 412    -236.490  48.502  35.768  1.00  0.00    -0.317 C  
HETATM    3  C22 DL2 A 412    -236.970  47.061  35.489  1.00  0.00    -0.656 C  
HETATM    4  O7  DL2 A 412    -237.162  49.014  36.916  1.00  0.00    -0.412 OA 
HETATM    5  C21 DL2 A 412    -236.210  46.136  36.436  1.00  0.00    -0.456 C  
HETATM    6  C3  DL2 A 412    -237.868  50.097  36.495  1.00  0.00    -0.389 A  
HETATM    7  N12 DL2 A 412    -234.744  46.169  36.177  1.00  0.00    -0.329 N  
HETATM    8  C2  DL2 A 412    -237.668  50.274  35.115  1.00  0.00    -0.365 A  
HETATM    9  C1  DL2 A 412    -238.263  51.291  34.421  1.00  0.00    -0.535 A  
HETATM   10  C11 DL2 A 412    -234.274  47.399  35.519  1.00  0.00     0.014 C  
HETATM   11  C13 DL2 A 412    -233.980  45.012  35.975  1.00  0.00    -0.316 C  
HETATM   12  O9  DL2 A 412    -236.822  49.304  34.645  1.00  0.00    -0.350 OA 
HETATM   13  O20 DL2 A 412    -232.757  45.018  36.169  1.00  0.00    -0.293 OA 
HETATM   14  C6  DL2 A 412    -239.083  52.143  35.176  1.00  0.00    -0.608 A  
HETATM   15  C5  DL2 A 412    -239.274  51.969  36.531  1.00  0.00    -0.344 A  
HETATM   16  C4  DL2 A 412    -238.667  50.925  37.239  1.00  0.00    -0.603 A  
ENDROOT
BRANCH  11  17
HETATM   17  C14 DL2 A 412    -234.729  43.776  35.489  1.00  0.00    -0.478 C  
BRANCH  17  18
HETATM   18  C15 DL2 A 412    -235.485  43.087  36.590  1.00  0.00    -0.393 C  
HETATM   19  N16 DL2 A 412    -236.686  42.497  36.256  1.00  0.00    -0.529 N  
HETATM   20  H16 DL2 A 412    -237.016  42.548  35.292  1.00  0.00     0.000 HD 
HETATM   21  C17 DL2 A 412    -237.475  41.819  37.228  1.00  0.00    -0.513 C  
HETATM   22  C23 DL2 A 412    -236.943  41.814  38.550  1.00  0.00    -0.358 C  
HETATM   23  O18 DL2 A 412    -238.529  41.300  36.890  1.00  0.00    -0.520 OA 
HETATM   24 CL   DL2 A 412    -237.906  41.009  39.667  1.00  0.00    -0.856 Cl 
HETATM   25  C25 DL2 A 412    -235.770  42.403  38.891  1.00  0.00    -0.523 C  
HETATM   26  C19 DL2 A 412    -235.014  43.065  37.879  1.00  0.00    -0.497 C  
ENDBRANCH  17  18
ENDBRANCH  11  17
TORSDOF 2
ENDMDL
