REMARK 13 active torsions:
REMARK  status: ('A' for Active; 'I' for Inactive)
REMARK    1  A    between atoms: C3_6  and  C5_10
REMARK    2  A    between atoms: N2_12  and  C6_14
REMARK    3  A    between atoms: C4_8  and  N1_16
REMARK    4  A    between atoms: C12_19  and  C27_25
REMARK    5  A    between atoms: N7_28  and  C28_29
REMARK    6  A    between atoms: C11_22  and  N6_49
REMARK    7  A    between atoms: N6_49  and  C13_51
REMARK    8  A    between atoms: C28_29  and  C29_30
REMARK    9  A    between atoms: C29_30  and  N8_31
REMARK   10  A    between atoms: N8_31  and  C30_33
REMARK   11  A    between atoms: C30_33  and  N9_35
REMARK   12  A    between atoms: N9_35  and  C31_37
REMARK   13  A    between atoms: N10_39  and  C40_43
ROOT
HETATM    1  C1  UKA A1200      -5.403 -11.128  49.465  1.00  0.00     0.190 C
HETATM    2  O3  UKA A1200      -5.576 -12.503  49.107  1.00  0.00    -0.385 OA
HETATM    3  C2  UKA A1200      -5.108 -10.230  48.272  1.00  0.00     0.184 C
HETATM    4  O2  UKA A1200      -5.735 -10.642  47.065  1.00  0.00    -0.386 OA
HETATM    5  H3  UKA A1200      -5.760 -13.063  49.851  1.00  0.00     0.210 HD
HETATM    6  C3  UKA A1200      -3.608 -10.308  48.118  1.00  0.00     0.233 C
HETATM    7  H2  UKA A1200      -6.679 -10.593  47.162  1.00  0.00     0.210 HD
HETATM    8  C4  UKA A1200      -4.161 -11.001  50.329  1.00  0.00     0.232 C
HETATM    9  O1  UKA A1200      -3.103 -10.716  49.404  1.00  0.00    -0.343 OA
ENDROOT
BRANCH   6  10
HETATM   10  C5  UKA A1200      -3.071  -8.983  47.659  1.00  0.00     0.232 C
HETATM   11  O4  UKA A1200      -3.473  -7.970  48.199  1.00  0.00    -0.277 OA
HETATM   12  N2  UKA A1200      -2.166  -8.962  46.660  1.00  0.00    -0.256 N
HETATM   13  H2  UKA A1200      -1.872  -9.847  46.246  1.00  0.00     0.130 HD
BRANCH  12  14
HETATM   14  C6  UKA A1200      -1.590  -7.719  46.147  1.00  0.00     0.086 C
HETATM   15  C7  UKA A1200      -1.065  -7.806  44.733  1.00  0.00     0.020 C
ENDBRANCH  12  14
ENDBRANCH   6  10
BRANCH   8  16
HETATM   16  N1  UKA A1200      -4.329  -9.927  51.368  1.00  0.00    -0.187 NA
HETATM   17  C10 UKA A1200      -4.908 -10.116  52.548  1.00  0.00     0.148 A
HETATM   18  N5  UKA A1200      -5.467 -11.213  53.094  1.00  0.00    -0.209 NA
HETATM   19  C12 UKA A1200      -5.996 -11.170  54.316  1.00  0.00     0.215 A
HETATM   20  C8  UKA A1200      -3.944  -8.643  51.309  1.00  0.00     0.177 A
HETATM   21  N4  UKA A1200      -5.990 -10.020  55.012  1.00  0.00    -0.210 NA
HETATM   22  C11 UKA A1200      -5.455  -8.894  54.519  1.00  0.00     0.138 A
HETATM   23  N3  UKA A1200      -4.278  -8.013  52.455  1.00  0.00    -0.237 NA
HETATM   24  C9  UKA A1200      -4.882  -8.926  53.246  1.00  0.00     0.138 A
BRANCH  19  25
HETATM   25  C27 UKA A1200      -6.665 -12.361  54.929  1.00  0.00     0.269 C
HETATM   26  O5  UKA A1200      -6.525 -13.478  54.454  1.00  0.00    -0.271 OA
HETATM   27  H7  UKA A1200      -7.455 -11.088  56.291  1.00  0.00     0.131 HD
HETATM   28  N7  UKA A1200      -7.482 -12.049  55.949  1.00  0.00    -0.250 N
BRANCH  28  29
HETATM   29  C28 UKA A1200      -8.397 -12.959  56.604  1.00  0.00     0.105 C
BRANCH  29  30
HETATM   30  C29 UKA A1200      -7.802 -13.478  57.891  1.00  0.00     0.106 C
BRANCH  30  31
HETATM   31  N8  UKA A1200      -7.727 -12.511  58.973  1.00  0.00    -0.243 N
HETATM   32  H8  UKA A1200      -6.841 -12.030  59.128  1.00  0.00     0.132 HD
BRANCH  31  33
HETATM   33  C30 UKA A1200      -8.747 -12.219  59.770  1.00  0.00     0.273 C
HETATM   34  O6  UKA A1200      -9.825 -12.732  59.604  1.00  0.00    -0.261 OA
BRANCH  33  35
HETATM   35  N9  UKA A1200      -8.555 -11.337  60.743  1.00  0.00    -0.241 N
HETATM   36  H9  UKA A1200      -7.631 -10.914  60.830  1.00  0.00     0.132 HD
BRANCH  35  37
HETATM   37  C31 UKA A1200      -9.587 -10.934  61.699  1.00  0.00     0.065 C
HETATM   38  C32 UKA A1200     -10.527  -9.893  61.095  1.00  0.00     0.035 C
HETATM   39  N10 UKA A1200     -10.518  -8.749  63.227  1.00  0.00    -0.259 NA
HETATM   40  C33 UKA A1200     -11.396  -9.191  62.135  1.00  0.00     0.093 C
HETATM   41  C35 UKA A1200      -8.883 -10.401  62.953  1.00  0.00     0.035 C
HETATM   42  C34 UKA A1200      -9.866  -9.830  63.960  1.00  0.00     0.093 C
BRANCH  39  43
HETATM   43  C40 UKA A1200     -10.274  -7.381  63.542  1.00  0.00     0.109 A
HETATM   44  N11 UKA A1200      -9.295  -7.063  64.437  1.00  0.00    -0.244 NA
HETATM   45  C39 UKA A1200      -8.988  -5.801  64.772  1.00  0.00     0.112 A
HETATM   46  C38 UKA A1200      -9.681  -4.734  64.194  1.00  0.00     0.020 A
HETATM   47  C37 UKA A1200     -10.693  -5.003  63.275  1.00  0.00     0.005 A
HETATM   48  C36 UKA A1200     -10.990  -6.331  62.949  1.00  0.00     0.040 A
ENDBRANCH  39  43
ENDBRANCH  35  37
ENDBRANCH  33  35
ENDBRANCH  31  33
ENDBRANCH  30  31
ENDBRANCH  29  30
ENDBRANCH  28  29
ENDBRANCH  19  25
BRANCH  22  49
HETATM   49  N6  UKA A1200      -5.428  -7.797  55.305  1.00  0.00    -0.270 NA
HETATM   50  H6  UKA A1200      -5.225  -6.882  54.901  1.00  0.00     0.129 HD
BRANCH  49  51
HETATM   51  C13 UKA A1200      -5.689  -7.924  56.731  1.00  0.00     0.100 C
HETATM   52  C24 UKA A1200     -10.318  -9.356  55.717  1.00  0.00     0.000 A
HETATM   53  C14 UKA A1200      -6.963  -7.198  57.143  1.00  0.00     0.063 C
HETATM   54  C19 UKA A1200      -7.092  -6.289  61.310  1.00  0.00     0.000 A
HETATM   55  C22 UKA A1200      -8.673  -8.983  57.436  1.00  0.00     0.004 A
HETATM   56  C15 UKA A1200      -6.999  -6.930  58.601  1.00  0.00    -0.039 A
HETATM   57  C18 UKA A1200      -7.726  -5.492  60.370  1.00  0.00     0.000 A
HETATM   58  C16 UKA A1200      -8.131  -7.959  56.681  1.00  0.00    -0.039 A
HETATM   59  C26 UKA A1200      -8.671  -7.624  55.444  1.00  0.00     0.004 A
HETATM   60  C17 UKA A1200      -7.676  -5.806  59.029  1.00  0.00     0.004 A
HETATM   61  C20 UKA A1200      -6.409  -7.417  60.901  1.00  0.00     0.000 A
HETATM   62  C23 UKA A1200      -9.768  -9.685  56.947  1.00  0.00     0.000 A
HETATM   63  C21 UKA A1200      -6.363  -7.738  59.541  1.00  0.00     0.004 A
HETATM   64  C25 UKA A1200      -9.768  -8.318  54.958  1.00  0.00     0.000 A
ENDBRANCH  49  51
ENDBRANCH  22  49
ENDBRANCH   8  16
TORSDOF 13
