REMARK  4 active torsions:
REMARK  status: ('A' for Active; 'I' for Inactive)
REMARK    1  A    between atoms: C12_2  and  N11_8
REMARK    2  A    between atoms: N11_8  and  C09_10
REMARK    3  A    between atoms: C09_10  and  N08_12
REMARK    4  A    between atoms: N08_12  and  C07_14
ROOT
HETATM    1  C13 D7W A4006     -24.730  14.989  40.542  1.00  0.00     0.040 A
HETATM    2  C12 D7W A4006     -24.672  14.271  41.769  1.00  0.00     0.025 A
HETATM    3  C14 D7W A4006     -25.418  14.466  39.434  1.00  0.00     0.042 A
HETATM    4  C17 D7W A4006     -25.329  13.015  41.805  1.00  0.00     0.020 A
HETATM    5 CL1  D7W A4006     -25.470  15.418  37.894  1.00  0.00    -0.083 Cl
HETATM    6  C15 D7W A4006     -26.068  13.231  39.465  1.00  0.00     0.020 A
HETATM    7  C16 D7W A4006     -26.013  12.512  40.675  1.00  0.00     0.003 A
ENDROOT
BRANCH   2   8
HETATM    8  N11 D7W A4006     -23.944  14.806  42.973  1.00  0.00    -0.214 N
HETATM    9  H11 D7W A4006     -23.404  14.151  43.538  1.00  0.00     0.138 HD
BRANCH   8  10
HETATM   10  C09 D7W A4006     -23.967  16.210  43.378  1.00  0.00     0.283 C
HETATM   11  O10 D7W A4006     -24.624  16.967  42.688  1.00  0.00    -0.260 OA
BRANCH  10  12
HETATM   12  N08 D7W A4006     -23.273  16.819  44.549  1.00  0.00    -0.188 N
HETATM   13  H08 D7W A4006     -22.718  16.207  45.146  1.00  0.00     0.140 HD
BRANCH  12  14
HETATM   14  C07 D7W A4006     -23.338  18.247  44.898  1.00  0.00     0.171 C
HETATM   15  N06 D7W A4006     -24.035  19.205  44.198  1.00  0.00    -0.184 NA
HETATM   16  C04 D7W A4006     -23.881  20.515  44.816  1.00  0.00     0.284 C
HETATM   17  O05 D7W A4006     -24.358  21.582  44.465  1.00  0.00    -0.265 OA
HETATM   18  C03 D7W A4006     -22.977  20.307  46.033  1.00  0.00     0.134 C
HETATM   19  N02 D7W A4006     -22.661  18.849  46.038  1.00  0.00    -0.223 NA
HETATM   20  C01 D7W A4006     -21.801  18.265  47.081  1.00  0.00     0.119 C
ENDBRANCH  12  14
ENDBRANCH  10  12
ENDBRANCH   8  10
ENDBRANCH   2   8
TORSDOF 4
