REMARK  2 active torsions:
REMARK  status: ('A' for Active; 'I' for Inactive)
REMARK    1  A    between atoms: C6_3  and  C7_10
REMARK    2  A    between atoms: C5_5  and  C13_19
ROOT
HETATM    1  N2  T4E A1201     -20.342   8.173  17.331  1.00  0.00    -0.117 NA
HETATM    2  N1  T4E A1201     -21.233   7.324  17.048  1.00  0.00    -0.144 NA
HETATM    3  C6  T4E A1201     -21.210   5.991  17.439  1.00  0.00     0.119 A
HETATM    4  H32 T4E A1201     -18.670   9.546  18.829  1.00  0.00     0.127 HD
HETATM    5  C5  T4E A1201     -20.047   5.587  18.213  1.00  0.00     0.102 A
HETATM    6  H31 T4E A1201     -17.399   8.491  18.905  1.00  0.00     0.127 HD
HETATM    7  N4  T4E A1201     -19.065   6.504  18.525  1.00  0.00    -0.214 NA
HETATM    8  N3  T4E A1201     -18.224   8.754  18.366  1.00  0.00    -0.269 NA
HETATM    9  C3  T4E A1201     -19.204   7.811  18.074  1.00  0.00     0.220 A
ENDROOT
BRANCH   3  10
HETATM   10  C7  T4E A1201     -22.313   5.082  17.016  1.00  0.00     0.006 A
HETATM   11  C8  T4E A1201     -22.055   3.831  16.387  1.00  0.00     0.032 A
HETATM   12  H1  T4E A1201     -25.178   1.593  15.345  1.00  0.00     0.217 HD
HETATM   13  C10 T4E A1201     -24.423   3.279  16.149  1.00  0.00     0.091 A
HETATM   14  C12 T4E A1201     -23.689   5.416  17.181  1.00  0.00     0.013 A
HETATM   15  O1  T4E A1201     -25.385   2.428  15.748  1.00  0.00    -0.358 OA
HETATM   16 CL1  T4E A1201     -22.628   1.483  15.270  1.00  0.00    -0.081 Cl
HETATM   17  C9  T4E A1201     -23.090   2.989  15.993  1.00  0.00     0.071 A
HETATM   18  C11 T4E A1201     -24.732   4.524  16.749  1.00  0.00     0.035 A
ENDBRANCH   3  10
BRANCH   5  19
HETATM   19  C13 T4E A1201     -19.801   4.182  18.733  1.00  0.00     0.003 A
HETATM   20  C16 T4E A1201     -19.306   1.546  19.719  1.00  0.00     0.000 A
HETATM   21  C15 T4E A1201     -18.266   2.321  19.194  1.00  0.00     0.001 A
HETATM   22  C17 T4E A1201     -20.616   2.085  19.745  1.00  0.00     0.001 A
HETATM   23  C18 T4E A1201     -20.842   3.400  19.269  1.00  0.00     0.010 A
HETATM   24  C14 T4E A1201     -18.518   3.629  18.718  1.00  0.00     0.010 A
ENDBRANCH   5  19
TORSDOF 2
