REMARK  7 active torsions:
REMARK  status: ('A' for Active; 'I' for Inactive)
REMARK    1  A    between atoms: N1_12  and  C13_15
REMARK    2  A    between atoms: C13_15  and  C14_16
REMARK    3  A    between atoms: C14_16  and  C15_17
REMARK    4  A    between atoms: C15_17  and  N2_18
REMARK    5  A    between atoms: C16_19  and  C17_22
REMARK    6  A    between atoms: N3_23  and  C21_27
REMARK    7  A    between atoms: C21_27  and  C22_28
ROOT
HETATM    1  C4  0NN A1501       7.964 -52.247  -4.430  1.00  0.00     0.000 A
HETATM    2  C3  0NN A1501       7.105 -52.254  -3.207  1.00  0.00     0.000 A
HETATM    3  C2  0NN A1501       7.610 -52.707  -2.006  1.00  0.00     0.007 A
HETATM    4  C1  0NN A1501       9.035 -53.198  -1.925  1.00  0.00    -0.010 A
HETATM    5  C6  0NN A1501       9.816 -53.193  -3.038  1.00  0.00    -0.016 A
HETATM    6  C7  0NN A1501      11.164 -53.734  -2.651  1.00  0.00     0.196 C
HETATM    7  C5  0NN A1501       9.264 -52.696  -4.356  1.00  0.00     0.006 A
HETATM    8  O1  0NN A1501      10.915 -54.384  -1.442  1.00  0.00    -0.364 OA
HETATM    9  C8  0NN A1501       9.867 -53.747  -0.763  1.00  0.00     0.097 C
HETATM   10  C11 0NN A1501      10.228 -52.693   0.305  1.00  0.00     0.055 C
HETATM   11  C12 0NN A1501      11.096 -53.254   1.466  1.00  0.00     0.087 C
HETATM   12  N1  0NN A1501      10.495 -54.509   2.009  1.00  0.00    -0.302 NA
HETATM   13  C10 0NN A1501      10.408 -55.508   0.933  1.00  0.00     0.087 C
HETATM   14  C9  0NN A1501       9.435 -55.038  -0.111  1.00  0.00     0.055 C
ENDROOT
BRANCH  12  15
HETATM   15  C13 0NN A1501      11.305 -54.987   3.115  1.00  0.00     0.085 C
BRANCH  15  16
HETATM   16  C14 0NN A1501      10.488 -55.836   4.068  1.00  0.00     0.031 C
BRANCH  16  17
HETATM   17  C15 0NN A1501      11.395 -56.396   5.156  1.00  0.00     0.090 C
BRANCH  17  18
HETATM   18  N2  0NN A1501      10.643 -57.235   6.108  1.00  0.00    -0.257 N
HETATM   19  C16 0NN A1501      10.372 -58.642   5.775  1.00  0.00     0.218 C
HETATM   20  H2  0NN A1501      10.314 -56.843   6.990  1.00  0.00     0.130 HD
HETATM   21  O2  0NN A1501      10.776 -59.097   4.724  1.00  0.00    -0.278 OA
BRANCH  19  22
HETATM   22  C17 0NN A1501       9.589 -59.563   6.753  1.00  0.00     0.140 C
HETATM   23  N3  0NN A1501       8.382 -58.978   7.333  1.00  0.00    -0.288 NA
HETATM   24  C18 0NN A1501      10.429 -59.969   7.900  1.00  0.00     0.029 C
HETATM   25  C20 0NN A1501       8.607 -58.666   8.748  1.00  0.00     0.085 C
HETATM   26  C19 0NN A1501      10.066 -59.018   8.999  1.00  0.00     0.017 C
BRANCH  23  27
HETATM   27  C21 0NN A1501       7.824 -57.829   6.583  1.00  0.00     0.120 C
BRANCH  27  28
HETATM   28  C22 0NN A1501       7.523 -58.213   5.125  1.00  0.00    -0.033 A
HETATM   29  C23 0NN A1501       7.584 -57.254   4.146  1.00  0.00     0.005 A
HETATM   30  C24 0NN A1501       7.291 -57.619   2.710  1.00  0.00     0.000 A
HETATM   31  C25 0NN A1501       6.967 -58.905   2.389  1.00  0.00     0.000 A
HETATM   32  C26 0NN A1501       6.900 -59.959   3.464  1.00  0.00     0.000 A
HETATM   33  C27 0NN A1501       7.164 -59.630   4.770  1.00  0.00     0.005 A
ENDBRANCH  27  28
ENDBRANCH  23  27
ENDBRANCH  19  22
ENDBRANCH  17  18
ENDBRANCH  16  17
ENDBRANCH  15  16
ENDBRANCH  12  15
TORSDOF 7
