REMARK  4 active torsions:
REMARK  status: ('A' for Active; 'I' for Inactive)
REMARK    1  A    between atoms: CAG_2  and  NAD_4
REMARK    2  A    between atoms: NAD_4  and  CAF_6
REMARK    3  A    between atoms: CAF_6  and  CAE_7
REMARK    4  A    between atoms: CAE_7  and  CAH_10
ROOT
HETATM    1  CAI 5FW A 601     -27.698 -15.447  25.092  1.00  0.00     0.023 C
HETATM    2  CAG 5FW A 601     -26.178 -15.400  25.217  1.00  0.00     0.048 C
HETATM    3  CAJ 5FW A 601     -25.540 -16.542  24.393  1.00  0.00     0.023 C
ENDROOT
BRANCH   2   4
HETATM    4  NAD 5FW A 601     -25.703 -14.074  24.758  1.00  0.00    -0.311 NA
HETATM    5  HAD 5FW A 601     -26.292 -13.334  25.140  1.00  0.00     0.122 HD
BRANCH   4   6
HETATM    6  CAF 5FW A 601     -24.277 -13.801  25.048  1.00  0.00     0.117 C
BRANCH   6   7
HETATM    7  CAE 5FW A 601     -24.040 -12.291  25.085  1.00  0.00     0.158 C
HETATM    8  OAA 5FW A 601     -24.423 -11.773  23.821  1.00  0.00    -0.386 OA
HETATM    9  HAA 5FW A 601     -24.276 -10.835  23.844  1.00  0.00     0.210 HD
BRANCH   7  10
HETATM   10  CAH 5FW A 601     -22.573 -11.997  25.334  1.00  0.00    -0.015 A
HETATM   11  CAK 5FW A 601     -21.982 -12.477  26.481  1.00  0.00     0.041 A
HETATM   12  CAM 5FW A 601     -20.641 -12.228  26.733  1.00  0.00     0.103 A
HETATM   13  CAO 5FW A 601     -19.874 -11.480  25.838  1.00  0.00     0.102 A
HETATM   14  OAB 5FW A 601     -20.106 -12.729  27.877  1.00  0.00    -0.357 OA
HETATM   15  OAC 5FW A 601     -18.566 -11.233  26.086  1.00  0.00    -0.357 OA
HETATM   16  CAN 5FW A 601     -20.457 -10.984  24.678  1.00  0.00     0.035 A
HETATM   17  HAB 5FW A 601     -19.187 -12.558  28.050  1.00  0.00     0.217 HD
HETATM   18  HAC 5FW A 601     -18.167 -11.572  26.879  1.00  0.00     0.217 HD
HETATM   19  CAL 5FW A 601     -21.809 -11.255  24.431  1.00  0.00     0.009 A
ENDBRANCH   7  10
ENDBRANCH   6   7
ENDBRANCH   4   6
ENDBRANCH   2   4
TORSDOF 4
