REMARK  4 active torsions:
REMARK  status: ('A' for Active; 'I' for Inactive)
REMARK    1  A    between atoms: C6_13  and  C16_19
REMARK    2  A    between atoms: N3_20  and  C17_23
REMARK    3  A    between atoms: C19_28  and  C27_40
REMARK    4  A    between atoms: C27_40  and  C28_41
ROOT
HETATM    1  C1  ERM A2001      -5.279 -20.621  23.228  1.00  0.00     0.061 A
HETATM    2  C2  ERM A2001      -6.252 -20.018  22.492  1.00  0.00    -0.026 A
HETATM    3  C14 ERM A2001      -7.402 -20.099  23.301  1.00  0.00     0.005 A
HETATM    4  C13 ERM A2001      -7.124 -20.726  24.524  1.00  0.00     0.028 A
HETATM    5  C12 ERM A2001      -8.079 -20.896  25.478  1.00  0.00     0.020 A
HETATM    6  N1  ERM A2001      -5.767 -21.035  24.418  1.00  0.00    -0.264 NA
HETATM    7  C11 ERM A2001      -9.403 -20.411  25.209  1.00  0.00     0.002 A
HETATM    8  H1  ERM A2001      -5.220 -21.507  25.138  1.00  0.00     0.133 HD
HETATM    9  C10 ERM A2001      -9.680 -19.785  23.970  1.00  0.00     0.009 A
HETATM   10  C9  ERM A2001      -8.695 -19.603  22.985  1.00  0.00    -0.012 A
HETATM   11  C8  ERM A2001      -8.843 -18.992  21.600  1.00  0.00    -0.025 C
HETATM   12  C7  ERM A2001      -9.984 -19.123  20.930  1.00  0.00    -0.008 C
HETATM   13  C6  ERM A2001     -10.197 -18.572  19.543  1.00  0.00     0.109 C
HETATM   14  C3  ERM A2001      -6.319 -19.424  21.114  1.00  0.00     0.060 C
HETATM   15  C5  ERM A2001      -9.099 -17.646  19.053  1.00  0.00     0.101 C
HETATM   16  N2  ERM A2001      -7.721 -18.066  19.493  1.00  0.00    -0.297 NA
HETATM   17  C15 ERM A2001      -6.868 -16.917  19.089  1.00  0.00     0.105 C
HETATM   18  C4  ERM A2001      -7.553 -18.459  20.955  1.00  0.00     0.091 C
ENDROOT
BRANCH  13  19
HETATM   19  C16 ERM A2001     -11.589 -17.893  19.367  1.00  0.00     0.211 C
HETATM   20  N3  ERM A2001     -12.463 -18.493  18.524  1.00  0.00    -0.222 N
HETATM   21  O1  ERM A2001     -11.837 -16.865  19.965  1.00  0.00    -0.279 OA
HETATM   22  H3  ERM A2001     -12.169 -19.372  18.099  1.00  0.00     0.134 HD
BRANCH  20  23
HETATM   23  C17 ERM A2001     -13.795 -17.992  18.167  1.00  0.00     0.202 C
HETATM   24  C26 ERM A2001     -14.268 -18.981  17.116  1.00  0.00     0.070 C
HETATM   25  C18 ERM A2001     -14.741 -17.931  19.335  1.00  0.00     0.255 C
HETATM   26  O3  ERM A2001     -15.147 -18.879  19.977  1.00  0.00    -0.274 OA
HETATM   27  N4  ERM A2001     -15.047 -16.631  19.463  1.00  0.00    -0.175 N
HETATM   28  C19 ERM A2001     -16.000 -16.150  20.437  1.00  0.00     0.156 C
HETATM   29  C20 ERM A2001     -16.859 -15.036  19.817  1.00  0.00     0.222 C
HETATM   30  C24 ERM A2001     -15.457 -14.858  17.768  1.00  0.00     0.141 C
HETATM   31  H5  ERM A2001     -12.856 -15.421  19.643  1.00  0.00     0.214 HD
HETATM   32  O4  ERM A2001     -17.845 -14.600  20.436  1.00  0.00    -0.278 OA
HETATM   33  N5  ERM A2001     -16.541 -14.490  18.652  1.00  0.00    -0.233 N
HETATM   34  C21 ERM A2001     -17.252 -13.431  17.946  1.00  0.00     0.093 C
HETATM   35  O5  ERM A2001     -13.496 -14.900  19.173  1.00  0.00    -0.351 OA
HETATM   36  C22 ERM A2001     -16.233 -12.666  17.129  1.00  0.00     0.018 C
HETATM   37  O2  ERM A2001     -13.762 -16.643  17.689  1.00  0.00    -0.305 OA
HETATM   38  C25 ERM A2001     -14.427 -15.697  18.524  1.00  0.00     0.255 C
HETATM   39  C23 ERM A2001     -14.980 -13.587  17.041  1.00  0.00     0.027 C
BRANCH  28  40
HETATM   40  C27 ERM A2001     -15.364 -15.628  21.701  1.00  0.00     0.063 C
BRANCH  40  41
HETATM   41  C28 ERM A2001     -14.753 -16.660  22.630  1.00  0.00    -0.045 A
HETATM   42  C31 ERM A2001     -13.557 -18.487  24.409  1.00  0.00     0.000 A
HETATM   43  C29 ERM A2001     -13.409 -16.496  23.034  1.00  0.00     0.004 A
HETATM   44  C32 ERM A2001     -14.910 -18.620  24.044  1.00  0.00     0.000 A
HETATM   45  C33 ERM A2001     -15.516 -17.727  23.143  1.00  0.00     0.004 A
HETATM   46  C30 ERM A2001     -12.800 -17.423  23.900  1.00  0.00     0.000 A
ENDBRANCH  40  41
ENDBRANCH  28  40
ENDBRANCH  20  23
ENDBRANCH  13  19
TORSDOF 4
