REMARK  2 active torsions:
REMARK  status: ('A' for Active; 'I' for Inactive)
REMARK    1  A    between atoms: NAS_28  and  CBB_31
REMARK    2  A    between atoms: CBB_31  and  CBC_32
ROOT
HETATM    1  CAB EJ4 A 500      61.261  38.391  -9.305  1.00  0.00     0.103 A
HETATM    2  OAA EJ4 A 500      61.320  37.101  -9.740  1.00  0.00    -0.357 OA
HETATM    3  CAC EJ4 A 500      62.139  39.252  -9.839  1.00  0.00     0.111 A
HETATM    4  HAA EJ4 A 500      60.698  36.491  -9.362  1.00  0.00     0.217 HD
HETATM    5  CAW EJ4 A 500      61.899  40.494  -9.518  1.00  0.00     0.000 A
HETATM    6  CAX EJ4 A 500      61.216  40.991  -8.472  1.00  0.00    -0.039 A
HETATM    7  CAY EJ4 A 500      60.335  40.124  -7.839  1.00  0.00     0.006 A
HETATM    8  CBA EJ4 A 500      61.355  42.426  -8.313  1.00  0.00     0.057 C
HETATM    9  CAZ EJ4 A 500      60.380  38.795  -8.288  1.00  0.00     0.035 A
HETATM   10  CAR EJ4 A 500      62.718  43.149  -8.761  1.00  0.00     0.094 C
HETATM   11  CAP EJ4 A 500      62.847  42.511 -10.148  1.00  0.00     0.098 C
HETATM   12  OAQ EJ4 A 500      63.927  43.119 -10.881  1.00  0.00    -0.386 OA
HETATM   13  CAO EJ4 A 500      61.507  42.651 -10.911  1.00  0.00     0.074 C
HETATM   14  CAG EJ4 A 500      61.530  42.063 -12.157  1.00  0.00    -0.019 A
HETATM   15  HAQ EJ4 A 500      64.749  43.033 -10.413  1.00  0.00     0.210 HD
HETATM   16  CAF EJ4 A 500      62.280  40.944 -12.309  1.00  0.00     0.031 A
HETATM   17  CAE EJ4 A 500      63.322  40.553 -11.425  1.00  0.00     0.180 C
HETATM   18  NAN EJ4 A 500      62.055  40.539 -13.563  1.00  0.00    -0.259 NA
HETATM   19  CAV EJ4 A 500      62.951  41.137 -10.112  1.00  0.00     0.062 C
HETATM   20  OAD EJ4 A 500      62.974  39.180 -10.953  1.00  0.00    -0.332 OA
HETATM   21  HAN EJ4 A 500      62.563  39.795 -14.040  1.00  0.00     0.133 HD
HETATM   22  CAM EJ4 A 500      61.065  41.256 -14.094  1.00  0.00     0.027 A
HETATM   23  CAH EJ4 A 500      60.705  42.174 -13.197  1.00  0.00    -0.002 A
HETATM   24  CAU EJ4 A 500      64.180  40.665  -9.314  1.00  0.00     0.033 C
HETATM   25  CAT EJ4 A 500      64.009  41.198  -7.941  1.00  0.00     0.086 C
HETATM   26  CAI EJ4 A 500      59.725  43.045 -13.453  1.00  0.00     0.010 A
HETATM   27  CAJ EJ4 A 500      59.048  43.023 -14.664  1.00  0.00     0.001 A
HETATM   28  NAS EJ4 A 500      63.928  42.675  -8.023  1.00  0.00    -0.296 NA
HETATM   29  CAK EJ4 A 500      59.424  42.068 -15.595  1.00  0.00     0.002 A
HETATM   30  CAL EJ4 A 500      60.452  41.185 -15.277  1.00  0.00     0.020 A
ENDROOT
BRANCH  28  31
HETATM   31  CBB EJ4 A 500      63.766  42.950  -6.574  1.00  0.00     0.088 C
BRANCH  31  32
HETATM   32  CBC EJ4 A 500      63.802  44.435  -6.083  1.00  0.00     0.003 C
HETATM   33  CBE EJ4 A 500      62.666  44.853  -5.149  1.00  0.00     0.005 C
HETATM   34  CBD EJ4 A 500      62.801  45.520  -6.512  1.00  0.00     0.005 C
ENDBRANCH  31  32
ENDBRANCH  28  31
TORSDOF 2
