REMARK  7 active torsions:
REMARK  status: ('A' for Active; 'I' for Inactive)
REMARK    1  A    between atoms: NBJ_3  and  CAS_11
REMARK    2  A    between atoms: CAS_11  and  CBB_12
REMARK    3  A    between atoms: CAZ_13  and  CAV_19
REMARK    4  A    between atoms: CAV_19  and  CBC_21
REMARK    5  A    between atoms: NBI_23  and  CAW_30
REMARK    6  A    between atoms: CAW_30  and  NBH_32
REMARK    7  A    between atoms: CBA_26  and  CAH_35
ROOT
HETATM    1  CAB 9EU A 501      44.614 -10.993 230.633  1.00  0.00     0.079 C
HETATM    2  CAX 9EU A 501      44.525  -9.488 230.908  1.00  0.00     0.088 A
HETATM    3  NBJ 9EU A 501      44.238  -8.531 230.019  1.00  0.00    -0.226 NA
HETATM    4  CBE 9EU A 501      44.251  -7.365 230.690  1.00  0.00     0.052 A
HETATM    5  CAP 9EU A 501      44.783  -6.642 232.855  1.00  0.00     0.140 A
HETATM    6  CAO 9EU A 501      44.000  -6.105 230.282  1.00  0.00     0.042 A
HETATM    7  NAU 9EU A 501      44.791  -8.941 232.088  1.00  0.00    -0.237 NA
HETATM    8  CAJ 9EU A 501      44.139  -5.028 231.154  1.00  0.00     0.112 A
HETATM    9  CBD 9EU A 501      44.635  -7.625 231.960  1.00  0.00     0.102 A
HETATM   10  NAT 9EU A 501      44.550  -5.310 232.466  1.00  0.00    -0.261 NA
ENDROOT
BRANCH   3  11
HETATM   11  CAS 9EU A 501      43.834  -8.743 228.580  1.00  0.00     0.134 C
BRANCH  11  12
HETATM   12  CBB 9EU A 501      44.723  -8.228 227.630  1.00  0.00     0.003 A
HETATM   13  CAZ 9EU A 501      46.429  -7.292 225.592  1.00  0.00     0.025 A
HETATM   14  FAG 9EU A 501      42.912  -7.313 226.462  1.00  0.00    -0.205 F
HETATM   15  CAL 9EU A 501      46.938  -8.008 226.691  1.00  0.00     0.012 A
HETATM   16  CAY 9EU A 501      44.204  -7.525 226.538  1.00  0.00     0.128 A
HETATM   17  CAQ 9EU A 501      45.047  -7.042 225.531  1.00  0.00     0.050 A
HETATM   18  CAM 9EU A 501      46.094  -8.490 227.697  1.00  0.00     0.008 A
BRANCH  13  19
HETATM   19  CAV 9EU A 501      47.334  -6.819 224.609  1.00  0.00     0.195 C
HETATM   20  OAE 9EU A 501      48.441  -6.376 224.951  1.00  0.00    -0.287 OA
BRANCH  19  21
HETATM   21  CBC 9EU A 501      47.073  -7.070 223.295  1.00  0.00     0.044 A
HETATM   22  CAR 9EU A 501      46.849  -8.304 222.863  1.00  0.00     0.082 A
HETATM   23  NBI 9EU A 501      46.720  -8.282 221.541  1.00  0.00    -0.175 N
HETATM   24  CBF 9EU A 501      47.090  -7.066 221.126  1.00  0.00     0.040 A
HETATM   25  CAK 9EU A 501      47.796  -4.438 220.757  1.00  0.00     0.017 A
HETATM   26  CBA 9EU A 501      47.670  -4.980 222.039  1.00  0.00     0.034 A
HETATM   27  CAN 9EU A 501      47.210  -6.573 219.880  1.00  0.00     0.021 A
HETATM   28  CBG 9EU A 501      47.327  -6.287 222.214  1.00  0.00     0.021 A
HETATM   29  CAI 9EU A 501      47.562  -5.246 219.650  1.00  0.00     0.003 A
BRANCH  23  30
HETATM   30  CAW 9EU A 501      46.592  -9.415 220.807  1.00  0.00     0.286 C
HETATM   31  OAF 9EU A 501      47.480  -9.689 219.992  1.00  0.00    -0.260 OA
BRANCH  30  32
HETATM   32  NBH 9EU A 501      45.601 -10.320 221.078  1.00  0.00    -0.236 N
HETATM   33  CAD 9EU A 501      45.577 -11.593 220.337  1.00  0.00     0.114 C
HETATM   34  CAC 9EU A 501      44.553 -10.025 222.061  1.00  0.00     0.114 C
ENDBRANCH  30  32
ENDBRANCH  23  30
BRANCH  26  35
HETATM   35  CAH 9EU A 501      47.896  -4.088 223.105  1.00  0.00    -0.069 C
HETATM   36  CAA 9EU A 501      48.081  -3.379 223.939  1.00  0.00     0.009 C
ENDBRANCH  26  35
ENDBRANCH  19  21
ENDBRANCH  13  19
ENDBRANCH  11  12
ENDBRANCH   3  11
TORSDOF 7
