MODEL        1
REMARK THIS MODEL IS IDENTICAL TO THE INPUT LIGAND AND NOT FROM DOCKING
REMARK 921   NORMALIZED FREE ENERGY PREDICTED BY IDOCK:  -11.48 KCAL/MOL
REMARK 922        TOTAL FREE ENERGY PREDICTED BY IDOCK:  -13.10 KCAL/MOL
REMARK 923 INTER-LIGAND FREE ENERGY PREDICTED BY IDOCK:  -12.82 KCAL/MOL
REMARK 924 INTRA-LIGAND FREE ENERGY PREDICTED BY IDOCK:   -0.27 KCAL/MOL
REMARK 927      BINDING AFFINITY PREDICTED BY RF-SCORE:    0.00 PKD
ROOT
HETATM    1  C2  51D A4006     -24.030  18.190  44.213  1.00  0.00    -0.493 A  
HETATM    2  C3  51D A4006     -23.520  19.377  44.710  1.00  0.00    -0.517 A  
HETATM    3  F1  51D A4006     -25.039  18.251  43.323  1.00  0.00    -0.464 F  
HETATM    4  C4  51D A4006     -22.490  19.365  45.624  1.00  0.00    -1.069 A  
HETATM    5 CL   51D A4006     -24.179  20.891  44.179  1.00  0.00    -0.979 Cl 
HETATM    6  C5  51D A4006     -21.958  18.151  46.055  1.00  0.00    -0.833 A  
HETATM    7  C19 51D A4006     -20.889  18.149  47.003  1.00  0.00    -0.444 C  
HETATM    8  C6  51D A4006     -22.466  16.953  45.559  1.00  0.00    -0.635 A  
HETATM    9  N20 51D A4006     -20.041  18.157  47.756  1.00  0.00    -0.455 NA 
HETATM   10  C7  51D A4006     -23.509  16.964  44.640  1.00  0.00    -0.753 A  
ENDROOT
BRANCH  10  11
HETATM   11  C8  51D A4006     -24.015  15.660  44.129  1.00  0.00    -0.426 A  
HETATM   12  C9  51D A4006     -24.405  15.500  42.797  1.00  0.00    -0.572 A  
HETATM   13  C10 51D A4006     -24.858  14.255  42.378  1.00  0.00    -0.508 A  
HETATM   14  N11 51D A4006     -24.898  13.254  43.251  1.00  0.00    -0.534 NA 
HETATM   15  N13 51D A4006     -24.083  14.603  44.938  1.00  0.00    -0.344 NA 
HETATM   16  C12 51D A4006     -24.513  13.436  44.499  1.00  0.00    -0.479 A  
BRANCH  13  17
HETATM   17  N14 51D A4006     -25.249  14.066  41.052  1.00  0.00    -0.495 NA 
HETATM   18  C15 51D A4006     -25.555  12.878  40.472  1.00  0.00    -0.658 A  
HETATM   19  C16 51D A4006     -25.869  13.127  39.183  1.00  0.00    -0.874 A  
HETATM   20  C17 51D A4006     -25.750  14.505  38.961  1.00  0.00    -0.533 A  
HETATM   21  N18 51D A4006     -25.377  15.066  40.080  1.00  0.00    -0.758 NA 
ENDBRANCH  13  17
ENDBRANCH  10  11
TORSDOF 2
ENDMDL
