MODEL        1
REMARK THIS MODEL IS IDENTICAL TO THE INPUT LIGAND AND NOT FROM DOCKING
REMARK 921   NORMALIZED FREE ENERGY PREDICTED BY IDOCK:  -12.66 KCAL/MOL
REMARK 922        TOTAL FREE ENERGY PREDICTED BY IDOCK:  -19.05 KCAL/MOL
REMARK 923 INTER-LIGAND FREE ENERGY PREDICTED BY IDOCK:  -17.11 KCAL/MOL
REMARK 924 INTRA-LIGAND FREE ENERGY PREDICTED BY IDOCK:   -1.94 KCAL/MOL
REMARK 927      BINDING AFFINITY PREDICTED BY RF-SCORE:    0.00 PKD
ROOT
HETATM    1  C13 GBQ A1201     -85.225  63.138 361.031  1.00  0.00    -0.417 C  
HETATM    2  F16 GBQ A1201     -85.727  64.321 360.739  1.00  0.00    -0.711 F  
HETATM    3  F14 GBQ A1201     -86.162  62.473 361.528  1.00  0.00    -0.548 F  
HETATM    4  F15 GBQ A1201     -84.829  62.506 359.918  1.00  0.00    -0.758 F  
HETATM    5  C05 GBQ A1201     -84.140  63.284 361.929  1.00  0.00    -0.616 A  
HETATM    6  C04 GBQ A1201     -84.362  63.813 363.206  1.00  0.00    -0.587 A  
HETATM    7  C03 GBQ A1201     -83.296  63.982 364.105  1.00  0.00    -0.539 A  
HETATM    8  F10 GBQ A1201     -79.691  63.976 361.912  1.00  0.00    -0.484 F  
HETATM    9  C08 GBQ A1201     -82.000  63.635 363.716  1.00  0.00    -0.579 A  
HETATM   10  C07 GBQ A1201     -81.741  63.110 362.445  1.00  0.00    -0.556 A  
HETATM   11  F12 GBQ A1201     -80.352  62.044 360.935  1.00  0.00    -0.505 F  
HETATM   12  C09 GBQ A1201     -80.400  62.793 362.092  1.00  0.00    -0.403 C  
HETATM   13  F11 GBQ A1201     -79.749  62.055 363.105  1.00  0.00    -0.476 F  
HETATM   14  C06 GBQ A1201     -82.819  62.965 361.550  1.00  0.00    -0.636 A  
ENDROOT
BRANCH   7  15
HETATM   15  C02 GBQ A1201     -83.476  64.511 365.389  1.00  0.00    -0.303 C  
HETATM   16  C01 GBQ A1201     -83.487  66.036 365.333  1.00  0.00    -0.427 C  
BRANCH  15  17
HETATM   17  O17 GBQ A1201     -84.679  64.054 366.032  1.00  0.00    -0.452 OA 
BRANCH  17  18
HETATM   18  C18 GBQ A1201     -84.537  62.781 366.759  1.00  0.00    -0.268 C  
HETATM   19  C19 GBQ A1201     -85.948  62.168 367.136  1.00  0.00    -0.311 C  
HETATM   20  N20 GBQ A1201     -86.566  62.884 368.302  1.00  0.00    -0.253 NA 
HETATM   21  O23 GBQ A1201     -83.727  62.964 367.976  1.00  0.00    -0.243 OA 
HETATM   22  C22 GBQ A1201     -84.332  63.864 368.957  1.00  0.00    -0.258 C  
HETATM   23  C21 GBQ A1201     -85.653  63.260 369.418  1.00  0.00    -0.237 C  
BRANCH  19  24
HETATM   24  C31 GBQ A1201     -86.772  62.102 365.963  1.00  0.00    -0.475 A  
HETATM   25  C36 GBQ A1201     -86.717  60.945 365.159  1.00  0.00    -0.742 A  
HETATM   26  F37 GBQ A1201     -89.153  61.816 362.521  1.00  0.00    -0.581 F  
HETATM   27  C33 GBQ A1201     -88.435  63.065 364.449  1.00  0.00    -0.557 A  
HETATM   28  C32 GBQ A1201     -87.635  63.156 365.586  1.00  0.00    -0.481 A  
HETATM   29  C35 GBQ A1201     -87.500  60.849 364.003  1.00  0.00    -0.530 A  
HETATM   30  C34 GBQ A1201     -88.362  61.907 363.662  1.00  0.00    -0.435 A  
ENDBRANCH  19  24
BRANCH  20  31
HETATM   31  C24 GBQ A1201     -87.723  62.196 368.917  1.00  0.00    -0.247 C  
BRANCH  31  32
HETATM   32  C25 GBQ A1201     -88.769  63.279 369.143  1.00  0.00    -0.372 C  
HETATM   33  N26 GBQ A1201     -88.879  64.047 370.232  1.00  0.00    -0.341 NA 
HETATM   34  O28 GBQ A1201     -90.279  65.785 370.697  1.00  0.00    -0.686 OA 
HETATM   35  N29 GBQ A1201     -90.310  64.716 368.718  1.00  0.00    -0.589 N  
HETATM   36  C27 GBQ A1201     -89.854  64.912 369.950  1.00  0.00    -0.331 C  
HETATM   37  N30 GBQ A1201     -89.598  63.698 368.194  1.00  0.00    -0.171 NA 
HETATM   38  H29 GBQ A1201     -91.056  65.236 368.256  1.00  0.00     0.000 HD 
ENDBRANCH  31  32
ENDBRANCH  20  31
ENDBRANCH  17  18
ENDBRANCH  15  17
ENDBRANCH   7  15
TORSDOF 6
ENDMDL
