REMARK  4 active torsions:
REMARK  status: ('A' for Active; 'I' for Inactive)
REMARK    1  A    between atoms: C6_8  and  C7_10
REMARK    2  A    between atoms: C8_11  and  C9_12
REMARK    3  A    between atoms: C10_14  and  C11_15
REMARK    4  A    between atoms: C12_16  and  C13_17
ROOT
HETATM    1  C1  RET A1296      55.276  13.629  18.121  1.00  0.00    -0.010 C
HETATM    2  C2  RET A1296      55.046  15.026  17.595  1.00  0.00     0.011 C
HETATM    3  C17 RET A1296      54.181  12.751  17.481  1.00  0.00     0.016 C
HETATM    4  C16 RET A1296      54.978  13.461  19.592  1.00  0.00     0.016 C
HETATM    5  C3  RET A1296      55.346  15.168  16.057  1.00  0.00     0.005 C
HETATM    6  C4  RET A1296      56.359  14.101  15.419  1.00  0.00     0.031 C
HETATM    7  C5  RET A1296      57.170  13.268  16.458  1.00  0.00    -0.069 C
HETATM    8  C6  RET A1296      56.676  13.074  17.768  1.00  0.00    -0.043 C
HETATM    9  C18 RET A1296      58.534  12.829  15.908  1.00  0.00     0.039 C
ENDROOT
BRANCH   8  10
HETATM   10  C7  RET A1296      57.575  12.356  18.754  1.00  0.00     0.004 C
HETATM   11  C8  RET A1296      57.700  10.980  18.685  1.00  0.00     0.003 C
BRANCH  11  12
HETATM   12  C9  RET A1296      58.374   9.999  19.568  1.00  0.00    -0.050 C
HETATM   13  C19 RET A1296      58.433  10.342  21.024  1.00  0.00     0.044 C
HETATM   14  C10 RET A1296      58.876   8.885  18.990  1.00  0.00     0.003 C
BRANCH  14  15
HETATM   15  C11 RET A1296      59.586   7.798  19.712  1.00  0.00     0.001 C
HETATM   16  C12 RET A1296      59.842   6.513  19.308  1.00  0.00     0.003 C
BRANCH  16  17
HETATM   17  C13 RET A1296      59.594   5.650  18.132  1.00  0.00    -0.055 C
HETATM   18  C14 RET A1296      60.236   4.458  18.173  1.00  0.00    -0.027 C
HETATM   19  C20 RET A1296      58.686   6.091  17.013  1.00  0.00     0.043 C
HETATM   20  C15 RET A1296      60.028   3.335  17.199  1.00  0.00     0.035 C
ENDBRANCH  16  17
ENDBRANCH  14  15
ENDBRANCH  11  12
ENDBRANCH   8  10
TORSDOF 4
