MODEL        1
REMARK THIS MODEL IS IDENTICAL TO THE INPUT LIGAND AND NOT FROM DOCKING
REMARK 921   NORMALIZED FREE ENERGY PREDICTED BY IDOCK:  -11.90 KCAL/MOL
REMARK 922        TOTAL FREE ENERGY PREDICTED BY IDOCK:  -16.31 KCAL/MOL
REMARK 923 INTER-LIGAND FREE ENERGY PREDICTED BY IDOCK:  -15.38 KCAL/MOL
REMARK 924 INTRA-LIGAND FREE ENERGY PREDICTED BY IDOCK:   -0.93 KCAL/MOL
REMARK 927      BINDING AFFINITY PREDICTED BY RF-SCORE:    0.00 PKD
ROOT
HETATM    1  F   A8X A9001      20.030 162.974 145.363  1.00  0.00    -0.595 F  
HETATM    2  C16 A8X A9001      21.199 162.421 145.592  1.00  0.00    -0.477 A  
HETATM    3  C15 A8X A9001      21.604 162.265 146.925  1.00  0.00    -0.629 A  
HETATM    4  C14 A8X A9001      22.829 161.649 147.149  1.00  0.00    -0.501 A  
HETATM    5  C13 A8X A9001      23.668 161.198 146.081  1.00  0.00    -0.408 A  
HETATM    6  C17 A8X A9001      21.994 161.969 144.488  1.00  0.00    -0.585 A  
HETATM    7  C18 A8X A9001      23.232 161.352 144.742  1.00  0.00    -0.591 A  
ENDROOT
BRANCH   5   8
HETATM    8  S   A8X A9001      25.149 160.558 146.406  1.00  0.00    -0.526 S  
HETATM    9  O2  A8X A9001      25.133 160.027 147.723  1.00  0.00    -0.823 OA 
HETATM   10  O3  A8X A9001      25.624 159.747 145.349  1.00  0.00    -0.612 OA 
BRANCH   8  11
HETATM   11  N1  A8X A9001      26.149 161.867 146.427  1.00  0.00    -0.508 N  
HETATM   12  H1  A8X A9001      26.797 161.968 145.646  1.00  0.00     0.000 HD 
BRANCH  11  13
HETATM   13  C12 A8X A9001      26.191 162.878 147.446  1.00  0.00    -0.417 C  
HETATM   14  C11 A8X A9001      27.638 163.130 147.976  1.00  0.00    -0.488 C  
HETATM   15  C4  A8X A9001      27.544 164.250 148.983  1.00  0.00    -0.555 A  
HETATM   16  C3  A8X A9001      26.484 165.164 149.041  1.00  0.00    -0.407 A  
HETATM   17  N   A8X A9001      26.693 166.130 150.076  1.00  0.00    -0.380 NA 
HETATM   18  C20 A8X A9001      25.254 165.111 148.149  1.00  0.00    -0.588 C  
HETATM   19  C10 A8X A9001      27.915 165.728 150.699  1.00  0.00    -0.402 A  
HETATM   20  C9  A8X A9001      28.591 166.264 151.826  1.00  0.00    -0.422 A  
HETATM   21  C19 A8X A9001      25.525 164.194 146.937  1.00  0.00    -0.514 C  
HETATM   22  C5  A8X A9001      28.453 164.574 150.016  1.00  0.00    -0.541 A  
HETATM   23  C8  A8X A9001      29.782 165.632 152.244  1.00  0.00    -0.553 A  
HETATM   24  C7  A8X A9001      30.319 164.503 151.567  1.00  0.00    -0.709 A  
HETATM   25  C6  A8X A9001      29.670 163.972 150.457  1.00  0.00    -0.530 A  
BRANCH  17  26
HETATM   26  C2  A8X A9001      26.566 167.544 149.626  1.00  0.00    -0.416 C  
BRANCH  26  27
HETATM   27  C1  A8X A9001      25.834 168.500 150.518  1.00  0.00    -0.544 C  
HETATM   28  C   A8X A9001      26.905 169.280 151.216  1.00  0.00    -0.471 C  
HETATM   29  O1  A8X A9001      27.066 169.067 152.515  1.00  0.00    -0.363 OA 
HETATM   30  O   A8X A9001      27.679 170.080 150.726  1.00  0.00    -0.824 OA 
ENDBRANCH  26  27
ENDBRANCH  17  26
ENDBRANCH  11  13
ENDBRANCH   8  11
ENDBRANCH   5   8
TORSDOF 5
ENDMDL
