REMARK  4 active torsions:
REMARK  status: ('A' for Active; 'I' for Inactive)
REMARK    1  A    between atoms: C5_8  and  C8_14
REMARK    2  A    between atoms: N01_15  and  C10_18
REMARK    3  A    between atoms: N2_21  and  C15_24
REMARK    4  A    between atoms: C22_27  and  C23_34
ROOT
HETATM    1  N1  836 A1201      59.864 112.816  58.584  1.00  0.00     0.152 N
HETATM    2  O3  836 A1201      60.222 113.114  59.664  1.00  0.00    -0.157 OA
HETATM    3  O2  836 A1201      60.545 113.069  57.657  1.00  0.00    -0.157 OA
HETATM    4  C1  836 A1201      58.599 112.124  58.383  1.00  0.00     0.106 A
HETATM    5  C2  836 A1201      58.160 111.779  56.951  1.00  0.00     0.040 A
HETATM    6  C3  836 A1201      57.010 111.155  56.736  1.00  0.00     0.068 A
HETATM    7  C4  836 A1201      56.595 110.807  55.294  1.00  0.00     0.418 C
HETATM    8  C5  836 A1201      56.109 110.813  57.946  1.00  0.00     0.045 A
HETATM    9  F2  836 A1201      56.490 109.467  55.120  1.00  0.00    -0.166 F
HETATM   10  F4  836 A1201      55.385 111.350  54.991  1.00  0.00    -0.166 F
HETATM   11  C7  836 A1201      57.829 111.783  59.419  1.00  0.00     0.027 A
HETATM   12  C6  836 A1201      56.493 111.072  59.188  1.00  0.00     0.015 A
HETATM   13  F3  836 A1201      57.520 111.245  54.402  1.00  0.00    -0.166 F
ENDROOT
BRANCH   8  14
HETATM   14  C8  836 A1201      54.862 109.953  57.745  1.00  0.00     0.235 C
HETATM   15  N01 836 A1201      55.028 108.489  57.749  1.00  0.00    -0.240 N
HETATM   16  O1  836 A1201      53.795 110.457  57.562  1.00  0.00    -0.274 OA
HETATM   17  C9  836 A1201      56.322 107.834  57.961  1.00  0.00     0.114 C
BRANCH  15  18
HETATM   18  C10 836 A1201      53.855 107.685  57.581  1.00  0.00     0.067 C
HETATM   19  C14 836 A1201      54.051 106.496  56.575  1.00  0.00     0.035 C
HETATM   20  C13 836 A1201      52.750 105.646  56.521  1.00  0.00     0.093 C
HETATM   21  N2  836 A1201      52.199 105.450  57.849  1.00  0.00    -0.257 NA
HETATM   22  C11 836 A1201      53.295 107.295  58.949  1.00  0.00     0.035 C
HETATM   23  C12 836 A1201      52.017 106.545  58.748  1.00  0.00     0.093 C
BRANCH  21  24
HETATM   24  C15 836 A1201      52.243 104.092  58.361  1.00  0.00     0.140 A
HETATM   25  N4  836 A1201      53.248 103.346  57.973  1.00  0.00    -0.136 NA
HETATM   26  N3  836 A1201      53.369 102.062  58.344  1.00  0.00    -0.146 NA
HETATM   27  C22 836 A1201      52.442 101.463  59.077  1.00  0.00     0.114 A
HETATM   28  C16 836 A1201      51.210 103.543  59.136  1.00  0.00     0.023 A
HETATM   29  C17 836 A1201      51.305 102.188  59.527  1.00  0.00     0.014 A
HETATM   30  C21 836 A1201      50.118 104.306  59.571  1.00  0.00     0.012 A
HETATM   31  C18 836 A1201      50.304 101.664  60.346  1.00  0.00     0.011 A
HETATM   32  C20 836 A1201      49.123 103.766  60.374  1.00  0.00     0.001 A
HETATM   33  C19 836 A1201      49.222 102.440  60.765  1.00  0.00     0.001 A
BRANCH  27  34
HETATM   34  C23 836 A1201      52.591  99.951  59.283  1.00  0.00     0.069 A
HETATM   35  N5  836 A1201      53.407  97.924  60.015  1.00  0.00    -0.201 NA
HETATM   36  N6  836 A1201      53.524  99.302  60.035  1.00  0.00    -0.170 NA
HETATM   37  C24 836 A1201      51.830  99.011  58.708  1.00  0.00     0.044 A
HETATM   38  C25 836 A1201      52.308  97.711  59.158  1.00  0.00     0.128 A
HETATM   39  C26 836 A1201      54.521  99.953  60.846  1.00  0.00     0.138 C
ENDBRANCH  27  34
ENDBRANCH  21  24
ENDBRANCH  15  18
ENDBRANCH   8  14
TORSDOF 4
