MODEL        1
REMARK THIS MODEL IS IDENTICAL TO THE INPUT LIGAND AND NOT FROM DOCKING
REMARK 921   NORMALIZED FREE ENERGY PREDICTED BY IDOCK:   -9.52 KCAL/MOL
REMARK 922        TOTAL FREE ENERGY PREDICTED BY IDOCK:  -11.54 KCAL/MOL
REMARK 923 INTER-LIGAND FREE ENERGY PREDICTED BY IDOCK:  -11.19 KCAL/MOL
REMARK 924 INTRA-LIGAND FREE ENERGY PREDICTED BY IDOCK:   -0.35 KCAL/MOL
REMARK 927      BINDING AFFINITY PREDICTED BY RF-SCORE:    0.00 PKD
ROOT
HETATM    1  N1  7LD A2001     -25.976 -12.817   6.961  1.00  0.00    -0.694 NA 
HETATM    2  C8  7LD A2001     -25.338 -13.597   6.082  1.00  0.00    -0.570 A  
HETATM    3  H1  7LD A2001     -26.498 -11.969   6.740  1.00  0.00     0.000 HD 
HETATM    4  C7  7LD A2001     -24.779 -14.611   6.745  1.00  0.00    -0.720 A  
HETATM    5  C15 7LD A2001     -23.988 -15.691   6.352  1.00  0.00    -0.667 C  
HETATM    6  C11 7LD A2001     -23.992 -16.826   7.392  1.00  0.00    -0.109 C  
HETATM    7  N2  7LD A2001     -22.935 -17.809   7.116  1.00  0.00     0.160 NA 
HETATM    8  C13 7LD A2001     -23.007 -18.837   8.162  1.00  0.00    -0.296 C  
HETATM    9  C12 7LD A2001     -23.226 -18.427   5.814  1.00  0.00    -0.455 C  
HETATM   10  C14 7LD A2001     -22.597 -18.247   9.509  1.00  0.00    -0.459 C  
HETATM   11  C10 7LD A2001     -23.329 -17.078   9.739  1.00  0.00    -0.520 C  
HETATM   12  C2  7LD A2001     -25.086 -14.914  10.302  1.00  0.00    -0.539 A  
HETATM   13  C5  7LD A2001     -25.866 -13.776  10.490  1.00  0.00    -0.596 A  
HETATM   14  C9  7LD A2001     -23.939 -16.350   8.714  1.00  0.00    -0.483 C  
HETATM   15  C4  7LD A2001     -26.221 -12.989   9.395  1.00  0.00    -0.643 A  
HETATM   16  C6  7LD A2001     -24.689 -15.220   9.007  1.00  0.00    -0.557 A  
HETATM   17  C1  7LD A2001     -25.812 -13.339   8.177  1.00  0.00    -0.461 A  
HETATM   18  C3  7LD A2001     -25.080 -14.430   8.019  1.00  0.00    -0.639 A  
ENDROOT
BRANCH  10  19
HETATM   19  C16 7LD A2001     -22.857 -19.171  10.533  1.00  0.00    -0.348 C  
HETATM   20  N3  7LD A2001     -21.864 -20.023  10.866  1.00  0.00    -0.344 N  
HETATM   21  O1  7LD A2001     -23.959 -19.190  11.081  1.00  0.00    -0.309 OA 
BRANCH  20  22
HETATM   22  C17 7LD A2001     -20.534 -20.017  10.238  1.00  0.00    -0.385 C  
HETATM   23  C18 7LD A2001     -19.495 -19.669  11.303  1.00  0.00    -0.501 C  
ENDBRANCH  20  22
BRANCH  20  24
HETATM   24  C19 7LD A2001     -22.040 -21.027  11.928  1.00  0.00    -0.320 C  
HETATM   25  C20 7LD A2001     -22.772 -22.256  11.381  1.00  0.00    -0.730 C  
ENDBRANCH  20  24
ENDBRANCH  10  19
TORSDOF 3
ENDMDL
