MODEL        1
REMARK THIS MODEL IS IDENTICAL TO THE INPUT LIGAND AND NOT FROM DOCKING
REMARK 921   NORMALIZED FREE ENERGY PREDICTED BY IDOCK:   -3.30 KCAL/MOL
REMARK 922        TOTAL FREE ENERGY PREDICTED BY IDOCK:   -4.25 KCAL/MOL
REMARK 923 INTER-LIGAND FREE ENERGY PREDICTED BY IDOCK:   -4.07 KCAL/MOL
REMARK 924 INTRA-LIGAND FREE ENERGY PREDICTED BY IDOCK:   -0.18 KCAL/MOL
REMARK 927      BINDING AFFINITY PREDICTED BY RF-SCORE:    0.00 PKD
ROOT
HETATM    1  C1  RET A1332     -18.074  53.693  -1.661  1.00  0.00    -0.485 C  
HETATM    2  C2  RET A1332     -18.184  52.169  -1.644  1.00  0.00    -0.542 C  
HETATM    3  C17 RET A1332     -18.720  54.235  -0.388  1.00  0.00    -0.655 C  
HETATM    4  C16 RET A1332     -18.855  54.168  -2.880  1.00  0.00    -0.380 C  
HETATM    5  C3  RET A1332     -16.970  51.446  -1.085  1.00  0.00    -0.814 C  
HETATM    6  C4  RET A1332     -15.706  51.911  -1.793  1.00  0.00    -0.745 C  
HETATM    7  C5  RET A1332     -15.563  53.420  -1.777  1.00  0.00    -0.672 C  
HETATM    8  C6  RET A1332     -16.645  54.234  -1.724  1.00  0.00    -0.551 C  
HETATM    9  C18 RET A1332     -14.151  53.957  -1.839  1.00  0.00    -0.798 C  
ENDROOT
BRANCH   8  10
HETATM   10  C7  RET A1332     -16.520  55.725  -1.737  1.00  0.00    -0.559 C  
HETATM   11  C8  RET A1332     -15.831  56.387  -0.799  1.00  0.00    -0.595 C  
BRANCH  11  12
HETATM   12  C9  RET A1332     -15.632  57.854  -0.698  1.00  0.00    -0.615 C  
HETATM   13  C19 RET A1332     -16.365  58.789  -1.618  1.00  0.00    -0.482 C  
HETATM   14  C10 RET A1332     -14.774  58.257   0.281  1.00  0.00    -0.714 C  
BRANCH  14  15
HETATM   15  C11 RET A1332     -14.401  59.647   0.576  1.00  0.00    -0.665 C  
HETATM   16  C12 RET A1332     -13.681  60.134   1.611  1.00  0.00    -0.251 C  
BRANCH  16  17
HETATM   17  C13 RET A1332     -13.067  59.492   2.806  1.00  0.00    -0.574 C  
HETATM   18  C14 RET A1332     -12.181  60.234   3.520  1.00  0.00     0.718 C  
HETATM   19  C20 RET A1332     -13.443  58.107   3.249  1.00  0.00    -0.942 C  
HETATM   20  C15 RET A1332     -11.481  59.812   4.743  1.00  0.00     6.247 C  
ENDBRANCH  16  17
ENDBRANCH  14  15
ENDBRANCH  11  12
ENDBRANCH   8  10
TORSDOF 4
ENDMDL
