MODEL        1
REMARK THIS MODEL IS IDENTICAL TO THE INPUT LIGAND AND NOT FROM DOCKING
REMARK 921   NORMALIZED FREE ENERGY PREDICTED BY IDOCK:   -6.75 KCAL/MOL
REMARK 922        TOTAL FREE ENERGY PREDICTED BY IDOCK:   -8.60 KCAL/MOL
REMARK 923 INTER-LIGAND FREE ENERGY PREDICTED BY IDOCK:   -8.33 KCAL/MOL
REMARK 924 INTRA-LIGAND FREE ENERGY PREDICTED BY IDOCK:   -0.27 KCAL/MOL
REMARK 927      BINDING AFFINITY PREDICTED BY RF-SCORE:    0.00 PKD
ROOT
HETATM    1  O2  68H A 601     -20.572 -13.388  28.719  1.00  0.00    -0.558 OA 
HETATM    2  C2  68H A 601     -19.964 -12.828  27.554  1.00  0.00    -0.312 C  
HETATM    3  H2  68H A 601     -19.963 -13.612  29.412  1.00  0.00     0.000 HD 
ENDROOT
BRANCH   2   4
HETATM    4  C12 68H A 601     -20.939 -12.470  26.445  1.00  0.00    -0.680 A  
HETATM    5  C11 68H A 601     -20.392 -11.674  25.316  1.00  0.00    -0.341 A  
HETATM    6  C10 68H A 601     -21.224 -11.312  24.262  1.00  0.00    -0.773 A  
HETATM    7  O1  68H A 601     -19.079 -11.306  25.297  1.00  0.00    -0.591 OA 
HETATM    8  H1  68H A 601     -18.729 -10.797  24.575  1.00  0.00     0.000 HD 
HETATM    9  C9  68H A 601     -22.558 -11.704  24.274  1.00  0.00    -0.749 A  
HETATM   10  C8  68H A 601     -23.107 -12.450  25.317  1.00  0.00    -0.591 A  
HETATM   11  C13 68H A 601     -22.302 -12.838  26.409  1.00  0.00    -0.654 A  
BRANCH  10  12
HETATM   12  C1  68H A 601     -24.550 -12.790  25.203  1.00  0.00    -0.459 C  
HETATM   13  H3  68H A 601     -24.994 -11.251  24.107  1.00  0.00     0.000 HD 
HETATM   14  O3  68H A 601     -25.139 -12.187  24.037  1.00  0.00    -0.307 OA 
BRANCH  12  15
HETATM   15  C3  68H A 601     -24.783 -14.296  25.091  1.00  0.00    -0.024 C  
BRANCH  15  16
HETATM   16  N1  68H A 601     -26.208 -14.542  25.315  1.00  0.00    -0.650 NA 
HETATM   17  C4  68H A 601     -26.818 -15.852  25.390  1.00  0.00    -0.319 C  
HETATM   18  H1  68H A 601     -26.816 -13.731  25.426  1.00  0.00     0.000 HD 
HETATM   19  C6  68H A 601     -26.862 -16.273  26.856  1.00  0.00    -0.465 C  
HETATM   20  C5  68H A 601     -28.224 -15.773  24.808  1.00  0.00    -0.289 C  
HETATM   21  C7  68H A 601     -26.007 -16.852  24.567  1.00  0.00    -0.574 C  
ENDBRANCH  15  16
ENDBRANCH  12  15
ENDBRANCH  10  12
ENDBRANCH   2   4
TORSDOF 4
ENDMDL
