MODEL        1
REMARK THIS MODEL IS IDENTICAL TO THE INPUT LIGAND AND NOT FROM DOCKING
REMARK 921   NORMALIZED FREE ENERGY PREDICTED BY IDOCK:  -10.16 KCAL/MOL
REMARK 922        TOTAL FREE ENERGY PREDICTED BY IDOCK:  -17.38 KCAL/MOL
REMARK 923 INTER-LIGAND FREE ENERGY PREDICTED BY IDOCK:  -14.92 KCAL/MOL
REMARK 924 INTRA-LIGAND FREE ENERGY PREDICTED BY IDOCK:   -2.46 KCAL/MOL
REMARK 927      BINDING AFFINITY PREDICTED BY RF-SCORE:    0.00 PKD
ROOT
HETATM    1  O5  ON7 A2001      -8.538 -28.661  53.158  1.00  0.00    -0.312 OA 
HETATM    2  C28 ON7 A2001      -7.476 -29.205  52.843  1.00  0.00    -0.256 C  
ENDROOT
BRANCH   2   3
HETATM    3  C25 ON7 A2001      -6.126 -28.784  53.145  1.00  0.00    -0.333 A  
HETATM    4  N1  ON7 A2001      -4.414 -27.383  53.409  1.00  0.00    -0.308 NA 
HETATM    5  C24 ON7 A2001      -4.980 -29.564  53.542  1.00  0.00    -0.349 A  
HETATM    6  C23 ON7 A2001      -3.937 -28.664  53.693  1.00  0.00    -0.234 A  
HETATM    7  C26 ON7 A2001      -5.744 -27.457  53.068  1.00  0.00    -0.150 A  
BRANCH   5   8
HETATM    8  C30 ON7 A2001      -4.871 -31.028  53.759  1.00  0.00    -0.445 C  
HETATM    9  C31 ON7 A2001      -4.850 -31.453  55.282  1.00  0.00    -0.413 C  
HETATM   10  O7  ON7 A2001      -5.416 -32.537  55.557  1.00  0.00    -0.483 OA 
HETATM   11  O6  ON7 A2001      -4.272 -30.707  56.118  1.00  0.00    -0.691 OA 
ENDBRANCH   5   8
BRANCH   4  12
HETATM   12  C13 ON7 A2001      -3.670 -26.134  53.514  1.00  0.00    -0.290 C  
HETATM   13  C8  ON7 A2001      -3.003 -25.572  52.228  1.00  0.00    -0.276 C  
HETATM   14  C6  ON7 A2001      -2.015 -26.601  51.510  1.00  0.00    -0.328 C  
HETATM   15  C12 ON7 A2001      -4.033 -24.989  51.226  1.00  0.00    -0.358 C  
HETATM   16  H2  ON7 A2001      -0.413 -27.657  51.955  1.00  0.00     0.000 HD 
HETATM   17  O2  ON7 A2001      -1.001 -27.045  52.382  1.00  0.00    -0.234 OA 
BRANCH  15  18
HETATM   18  C14 ON7 A2001      -4.223 -23.445  51.197  1.00  0.00    -0.413 C  
HETATM   19  C15 ON7 A2001      -5.324 -23.128  50.154  1.00  0.00    -0.515 C  
HETATM   20  C18 ON7 A2001      -3.234 -22.517  49.196  1.00  0.00    -0.447 A  
HETATM   21  C16 ON7 A2001      -2.991 -22.647  50.662  1.00  0.00    -0.627 C  
HETATM   22  C17 ON7 A2001      -4.558 -22.882  48.893  1.00  0.00    -0.519 A  
HETATM   23  C19 ON7 A2001      -2.336 -22.167  48.187  1.00  0.00    -0.474 A  
HETATM   24  C20 ON7 A2001      -2.766 -22.209  46.841  1.00  0.00    -0.639 A  
HETATM   25  C22 ON7 A2001      -4.993 -22.945  47.560  1.00  0.00    -0.681 A  
HETATM   26  C21 ON7 A2001      -4.072 -22.598  46.529  1.00  0.00    -0.636 A  
ENDBRANCH  15  18
BRANCH  14  27
HETATM   27  C3  ON7 A2001      -1.342 -25.966  50.303  1.00  0.00    -0.251 A  
HETATM   28  C10 ON7 A2001       0.474 -24.174  46.791  1.00  0.00    -0.423 C  
HETATM   29  C7  ON7 A2001       0.303 -24.477  49.308  1.00  0.00    -0.348 A  
HETATM   30  C2  ON7 A2001      -1.807 -26.320  49.027  1.00  0.00    -0.431 A  
HETATM   31  C9  ON7 A2001      -0.143 -24.796  47.993  1.00  0.00    -0.409 A  
HETATM   32  C1  ON7 A2001      -1.229 -25.736  47.883  1.00  0.00    -0.289 A  
HETATM   33  C5  ON7 A2001      -0.293 -25.050  50.454  1.00  0.00    -0.260 A  
BRANCH  32  34
HETATM   34  O1  ON7 A2001      -1.659 -26.020  46.591  1.00  0.00    -0.163 OA 
HETATM   35  C4  ON7 A2001      -3.005 -25.853  46.248  1.00  0.00    -0.197 C  
ENDBRANCH  32  34
BRANCH  29  36
HETATM   36  O3  ON7 A2001       1.337 -23.560  49.438  1.00  0.00    -0.440 OA 
HETATM   37  C11 ON7 A2001       2.623 -24.082  49.797  1.00  0.00    -0.520 C  
ENDBRANCH  29  36
ENDBRANCH  14  27
ENDBRANCH   4  12
ENDBRANCH   2   3
BRANCH   2  38
HETATM   38  O4  ON7 A2001      -7.451 -30.351  52.064  1.00  0.00    -0.352 OA 
HETATM   39  C29 ON7 A2001      -8.634 -30.958  51.620  1.00  0.00    -0.428 C  
ENDBRANCH   2  38
TORSDOF 8
ENDMDL
