MODEL        1
REMARK THIS MODEL IS IDENTICAL TO THE INPUT LIGAND AND NOT FROM DOCKING
REMARK 921   NORMALIZED FREE ENERGY PREDICTED BY IDOCK:   -7.39 KCAL/MOL
REMARK 922        TOTAL FREE ENERGY PREDICTED BY IDOCK:   -9.91 KCAL/MOL
REMARK 923 INTER-LIGAND FREE ENERGY PREDICTED BY IDOCK:   -9.55 KCAL/MOL
REMARK 924 INTRA-LIGAND FREE ENERGY PREDICTED BY IDOCK:   -0.36 KCAL/MOL
REMARK 927      BINDING AFFINITY PREDICTED BY RF-SCORE:    0.00 PKD
ROOT
HETATM    1  C1  ZMA A2401      -1.739  13.399  14.541  1.00  0.00    -0.400 A  
HETATM    2  C7  ZMA A2401      -0.792  12.431  14.927  1.00  0.00    -0.411 A  
HETATM    3  O4  ZMA A2401      -0.030  16.456  15.561  1.00  0.00    -0.195 OA 
HETATM    4  C6  ZMA A2401       0.359  12.807  15.601  1.00  0.00    -0.562 A  
HETATM    5  C2  ZMA A2401      -1.482  14.754  14.743  1.00  0.00    -0.327 A  
HETATM    6  C5  ZMA A2401       0.644  14.151  15.780  1.00  0.00    -0.453 A  
HETATM    7  H4  ZMA A2401       0.782  16.709  15.983  1.00  0.00     0.000 HD 
HETATM    8  C3  ZMA A2401      -0.286  15.127  15.365  1.00  0.00    -0.234 A  
ENDROOT
BRANCH   2   9
HETATM    9  C8  ZMA A2401      -1.167  10.968  14.758  1.00  0.00    -0.537 C  
BRANCH   9  10
HETATM   10  C9  ZMA A2401      -2.158  10.770  15.915  1.00  0.00    -0.334 C  
BRANCH  10  11
HETATM   11  N10 ZMA A2401      -2.509   9.378  16.159  1.00  0.00    -0.308 NA 
HETATM   12  H10 ZMA A2401      -3.417   9.035  15.845  1.00  0.00     0.000 HD 
BRANCH  11  13
HETATM   13  C11 ZMA A2401      -1.671   8.528  16.788  1.00  0.00    -0.252 C  
HETATM   14  N12 ZMA A2401      -2.056   7.231  16.973  1.00  0.00    -0.453 NA 
HETATM   15  C18 ZMA A2401      -1.191   6.416  17.630  1.00  0.00    -0.470 A  
HETATM   16  N19 ZMA A2401      -1.312   5.087  17.902  1.00  0.00    -0.418 NA 
HETATM   17  C20 ZMA A2401      -0.143   4.825  18.530  1.00  0.00    -0.497 A  
HETATM   18  N17 ZMA A2401       0.723   5.853  18.662  1.00  0.00    -0.722 NA 
HETATM   19 2H15 ZMA A2401       1.808   9.577  18.141  1.00  0.00     0.000 HD 
HETATM   20 1H15 ZMA A2401       2.210   7.950  18.726  1.00  0.00     0.000 HD 
HETATM   21  N16 ZMA A2401       0.002   6.844  18.036  1.00  0.00    -0.312 NA 
HETATM   22  N15 ZMA A2401       1.566   8.595  18.269  1.00  0.00     0.408 NA 
HETATM   23  C14 ZMA A2401       0.393   8.113  17.842  1.00  0.00    -0.366 C  
HETATM   24  N13 ZMA A2401      -0.465   8.972  17.233  1.00  0.00    -0.432 NA 
BRANCH  17  25
HETATM   25  C21 ZMA A2401       0.215   3.484  19.041  1.00  0.00    -0.341 A  
HETATM   26  C23 ZMA A2401       0.178   1.414  19.638  1.00  0.00    -0.592 A  
HETATM   27  C22 ZMA A2401      -0.643   2.413  19.123  1.00  0.00    -0.703 A  
HETATM   28  O25 ZMA A2401       1.508   3.246  19.385  1.00  0.00    -0.488 OA 
HETATM   29  C24 ZMA A2401       1.459   1.920  19.777  1.00  0.00    -0.154 A  
ENDBRANCH  17  25
ENDBRANCH  11  13
ENDBRANCH  10  11
ENDBRANCH   9  10
ENDBRANCH   2   9
TORSDOF 5
ENDMDL
