REMARK  5 active torsions:
REMARK  status: ('A' for Active; 'I' for Inactive)
REMARK    1  A    between atoms: C4_3  and  N5_7
REMARK    2  A    between atoms: N5_7  and  C16_9
REMARK    3  A    between atoms: C2_5  and  C5_12
REMARK    4  A    between atoms: C7_14  and  N4_17
REMARK    5  A    between atoms: C8_19  and  C10_21
ROOT
HETATM    1  C1  FM9 A1901      26.138 -20.232  30.049  1.00  0.00     0.223 A
HETATM    2  N1  FM9 A1901      25.190 -20.125  29.120  1.00  0.00    -0.224 NA
HETATM    3  C4  FM9 A1901      24.007 -20.855  29.294  1.00  0.00     0.111 A
HETATM    4  C3  FM9 A1901      23.819 -21.746  30.448  1.00  0.00     0.070 A
HETATM    5  C2  FM9 A1901      24.880 -21.834  31.355  1.00  0.00     0.094 A
HETATM    6  N2  FM9 A1901      26.009 -21.040  31.170  1.00  0.00    -0.234 NA
ENDROOT
BRANCH   3   7
HETATM    7  N5  FM9 A1901      22.953 -20.780  28.301  1.00  0.00    -0.270 NA
HETATM    8  H5  FM9 A1901      22.203 -21.471  28.329  1.00  0.00     0.129 HD
BRANCH   7   9
HETATM    9  C16 FM9 A1901      22.924 -19.756  27.264  1.00  0.00     0.054 C
HETATM   10  C17 FM9 A1901      21.507 -19.369  26.998  1.00  0.00     0.024 C
HETATM   11  C18 FM9 A1901      23.546 -20.288  26.020  1.00  0.00     0.024 C
ENDBRANCH   7   9
ENDBRANCH   3   7
BRANCH   5  12
HETATM   12  C5  FM9 A1901      24.790 -22.628  32.642  1.00  0.00     0.098 A
HETATM   13  N3  FM9 A1901      23.610 -23.107  33.232  1.00  0.00    -0.226 NA
HETATM   14  C7  FM9 A1901      23.866 -23.683  34.432  1.00  0.00     0.155 A
HETATM   15  C6  FM9 A1901      25.929 -22.784  33.449  1.00  0.00     0.078 A
HETATM   16  S1  FM9 A1901      25.524 -23.597  34.937  1.00  0.00    -0.063 SA
BRANCH  14  17
HETATM   17  N4  FM9 A1901      22.900 -24.259  35.349  1.00  0.00    -0.192 N
HETATM   18  C9  FM9 A1901      23.388 -25.034  36.410  1.00  0.00     0.122 C
HETATM   19  C8  FM9 A1901      21.476 -23.966  35.250  1.00  0.00     0.240 C
HETATM   20  O1  FM9 A1901      21.045 -23.268  34.357  1.00  0.00    -0.273 OA
BRANCH  19  21
HETATM   21  C10 FM9 A1901      20.505 -24.521  36.289  1.00  0.00     0.034 A
HETATM   22  C11 FM9 A1901      20.661 -24.220  37.614  1.00  0.00     0.015 A
HETATM   23  C12 FM9 A1901      19.660 -24.668  38.600  1.00  0.00     0.039 A
HETATM   24  C13 FM9 A1901      18.567 -25.381  38.152  1.00  0.00     0.123 A
HETATM   25  F1  FM9 A1901      17.662 -25.819  39.009  1.00  0.00    -0.205 F
HETATM   26  C14 FM9 A1901      18.386 -25.682  36.720  1.00  0.00     0.039 A
HETATM   27  C15 FM9 A1901      19.303 -25.288  35.818  1.00  0.00     0.015 A
ENDBRANCH  19  21
ENDBRANCH  14  17
ENDBRANCH   5  12
TORSDOF 5
