REMARK  2 active torsions:
REMARK  status: ('A' for Active; 'I' for Inactive)
REMARK    1  A    between atoms: C5_5  and  C13_10
REMARK    2  A    between atoms: C6_9  and  C7_16
ROOT
HETATM    1  N2  T4E A 330      23.684   6.666  32.080  1.00  0.00    -0.117 NA
HETATM    2  C3  T4E A 330      24.308   6.738  30.908  1.00  0.00     0.220 A
HETATM    3  N4  T4E A 330      24.432   7.799  30.123  1.00  0.00    -0.214 NA
HETATM    4  N3  T4E A 330      24.883   5.599  30.462  1.00  0.00    -0.269 NA
HETATM    5  C5  T4E A 330      23.852   8.945  30.571  1.00  0.00     0.102 A
HETATM    6  H31 T4E A 330      24.788   4.783  31.066  1.00  0.00     0.127 HD
HETATM    7  H32 T4E A 330      25.383   5.558  29.574  1.00  0.00     0.127 HD
HETATM    8  N1  T4E A 330      23.105   7.781  32.548  1.00  0.00    -0.144 NA
HETATM    9  C6  T4E A 330      23.167   8.937  31.828  1.00  0.00     0.119 A
ENDROOT
BRANCH   5  10
HETATM   10  C13 T4E A 330      24.011  10.116  29.668  1.00  0.00     0.003 A
HETATM   11  C18 T4E A 330      23.004  11.102  29.521  1.00  0.00     0.010 A
HETATM   12  C14 T4E A 330      25.200  10.281  28.914  1.00  0.00     0.010 A
HETATM   13  C15 T4E A 330      25.380  11.381  28.053  1.00  0.00     0.001 A
HETATM   14  C17 T4E A 330      23.174  12.204  28.663  1.00  0.00     0.001 A
HETATM   15  C16 T4E A 330      24.362  12.344  27.927  1.00  0.00     0.000 A
ENDBRANCH   5  10
BRANCH   9  16
HETATM   16  C7  T4E A 330      22.480  10.083  32.466  1.00  0.00     0.006 A
HETATM   17  C12 T4E A 330      21.110   9.987  32.803  1.00  0.00     0.013 A
HETATM   18  C10 T4E A 330      21.114  12.259  33.687  1.00  0.00     0.091 A
HETATM   19  O1  T4E A 330      20.443  13.293  34.273  1.00  0.00    -0.358 OA
HETATM   20  C9  T4E A 330      22.484  12.376  33.356  1.00  0.00     0.071 A
HETATM   21  C11 T4E A 330      20.430  11.061  33.407  1.00  0.00     0.035 A
HETATM   22 CL1  T4E A 330      23.352  13.836  33.683  1.00  0.00    -0.081 Cl
HETATM   23  C8  T4E A 330      23.155  11.292  32.750  1.00  0.00     0.032 A
HETATM   24  H1  T4E A 330      20.905  14.101  34.462  1.00  0.00     0.217 HD
ENDBRANCH   9  16
TORSDOF 2
