MODEL        1
REMARK THIS MODEL IS IDENTICAL TO THE INPUT LIGAND AND NOT FROM DOCKING
REMARK 921   NORMALIZED FREE ENERGY PREDICTED BY IDOCK:    0.51 KCAL/MOL
REMARK 922        TOTAL FREE ENERGY PREDICTED BY IDOCK:    2.51 KCAL/MOL
REMARK 923 INTER-LIGAND FREE ENERGY PREDICTED BY IDOCK:    0.78 KCAL/MOL
REMARK 924 INTRA-LIGAND FREE ENERGY PREDICTED BY IDOCK:    1.72 KCAL/MOL
REMARK 927      BINDING AFFINITY PREDICTED BY RF-SCORE:    0.00 PKD
ROOT
HETATM    1  C1  BOG A 405      14.441  46.175  35.195  1.00  0.00    -0.376 C  
HETATM    2  O3  BOG A 405      16.967  45.939  37.629  1.00  0.00    -0.360 OA 
HETATM    3  O5  BOG A 405      13.680  44.966  35.281  1.00  0.00    -0.316 OA 
HETATM    4  C5  BOG A 405      14.252  44.016  36.168  1.00  0.00    -0.382 C  
HETATM    5  H4  BOG A 405      14.266  43.603  38.838  1.00  0.00     0.000 HD 
HETATM    6  C4  BOG A 405      14.915  44.729  37.323  1.00  0.00    -0.393 C  
HETATM    7  H2  BOG A 405      17.424  45.039  34.431  1.00  0.00     0.000 HD 
HETATM    8  C2  BOG A 405      15.939  45.922  35.406  1.00  0.00    -0.250 C  
HETATM    9  H3  BOG A 405      17.143  45.464  38.433  1.00  0.00     0.000 HD 
HETATM   10  O4  BOG A 405      15.088  43.873  38.446  1.00  0.00    -0.348 OA 
HETATM   11  C3  BOG A 405      16.222  45.158  36.700  1.00  0.00    -0.437 C  
HETATM   12  O2  BOG A 405      16.496  45.196  34.300  1.00  0.00     3.521 OA 
ENDROOT
BRANCH   1  13
HETATM   13  O1  BOG A 405      13.994  47.029  36.239  1.00  0.00    -0.468 OA 
BRANCH  13  14
HETATM   14  C1' BOG A 405      12.580  47.054  36.438  1.00  0.00     3.199 C  
BRANCH  14  15
HETATM   15  C2' BOG A 405      11.865  46.963  35.100  1.00  0.00    -0.181 C  
BRANCH  15  16
HETATM   16  C3' BOG A 405      10.582  47.772  35.134  1.00  0.00     0.160 C  
BRANCH  16  17
HETATM   17  C4' BOG A 405      10.381  48.502  33.817  1.00  0.00    -0.755 C  
BRANCH  17  18
HETATM   18  C5' BOG A 405       9.174  47.963  33.064  1.00  0.00     0.076 C  
BRANCH  18  19
HETATM   19  C6' BOG A 405       7.880  48.366  33.755  1.00  0.00    -0.554 C  
BRANCH  19  20
HETATM   20  C7' BOG A 405       7.355  47.230  34.612  1.00  0.00    -0.528 C  
HETATM   21  C8' BOG A 405       5.872  47.363  34.831  1.00  0.00    -0.744 C  
ENDBRANCH  19  20
ENDBRANCH  18  19
ENDBRANCH  17  18
ENDBRANCH  16  17
ENDBRANCH  15  16
ENDBRANCH  14  15
ENDBRANCH  13  14
ENDBRANCH   1  13
BRANCH   4  22
HETATM   22  C6  BOG A 405      13.235  43.038  36.684  1.00  0.00     0.321 C  
HETATM   23  H6  BOG A 405      13.309  41.594  37.923  1.00  0.00     0.000 HD 
HETATM   24  O6  BOG A 405      13.952  42.212  37.597  1.00  0.00    -0.401 OA 
ENDBRANCH   4  22
TORSDOF 9
ENDMDL
