MODEL        1
REMARK THIS MODEL IS IDENTICAL TO THE INPUT LIGAND AND NOT FROM DOCKING
REMARK 921   NORMALIZED FREE ENERGY PREDICTED BY IDOCK:   -8.89 KCAL/MOL
REMARK 922        TOTAL FREE ENERGY PREDICTED BY IDOCK:  -10.82 KCAL/MOL
REMARK 923 INTER-LIGAND FREE ENERGY PREDICTED BY IDOCK:  -10.45 KCAL/MOL
REMARK 924 INTRA-LIGAND FREE ENERGY PREDICTED BY IDOCK:   -0.37 KCAL/MOL
REMARK 927      BINDING AFFINITY PREDICTED BY RF-SCORE:    0.00 PKD
ROOT
HETATM    1  C5' NEC A 400      31.745  11.029 -14.096  1.00  0.00    -0.444 C  
HETATM    2  O5' NEC A 400      31.202  10.037 -13.637  1.00  0.00    -0.636 OA 
HETATM    3  N5' NEC A 400      32.108  12.077 -13.353  1.00  0.00    -0.656 N  
HETATM    4  H5' NEC A 400      32.757  12.756 -13.752  1.00  0.00     0.000 HD 
ENDROOT
BRANCH   1   5
HETATM    5  C4' NEC A 400      32.061  11.115 -15.564  1.00  0.00    -0.381 C  
HETATM    6  H2' NEC A 400      32.294  10.409 -19.366  1.00  0.00     0.000 HD 
HETATM    7  O4' NEC A 400      33.121  10.200 -15.872  1.00  0.00    -0.402 OA 
HETATM    8  C1' NEC A 400      32.787   9.371 -16.991  1.00  0.00    -0.416 C  
HETATM    9  O2' NEC A 400      31.889  10.877 -18.646  1.00  0.00    -0.636 OA 
HETATM   10  C2' NEC A 400      31.525   9.970 -17.596  1.00  0.00    -0.375 C  
HETATM   11  H3' NEC A 400      29.403  11.603 -17.466  1.00  0.00     0.000 HD 
HETATM   12  C3' NEC A 400      30.879  10.717 -16.447  1.00  0.00    -0.427 C  
HETATM   13  O3' NEC A 400      30.138  11.850 -16.917  1.00  0.00    -0.796 OA 
BRANCH   8  14
HETATM   14  N9  NEC A 400      32.470   7.967 -16.592  1.00  0.00    -0.435 NA 
HETATM   15  C4  NEC A 400      32.537   6.907 -17.403  1.00  0.00    -0.260 A  
HETATM   16  C5  NEC A 400      32.112   5.740 -16.610  1.00  0.00    -0.146 A  
HETATM   17  C6  NEC A 400      32.115   4.423 -17.289  1.00  0.00    -0.353 A  
HETATM   18  N7  NEC A 400      31.824   6.198 -15.384  1.00  0.00    -0.687 NA 
HETATM   19  N1  NEC A 400      32.501   4.389 -18.588  1.00  0.00    -0.368 NA 
HETATM   20  N6  NEC A 400      31.753   3.289 -16.642  1.00  0.00    -0.825 NA 
HETATM   21  C8  NEC A 400      32.034   7.542 -15.384  1.00  0.00    -0.432 A  
HETATM   22  H62 NEC A 400      31.471   3.343 -15.663  1.00  0.00     0.000 HD 
HETATM   23  C2  NEC A 400      32.873   5.499 -19.251  1.00  0.00    -0.195 A  
HETATM   24  H61 NEC A 400      31.755   2.383 -17.109  1.00  0.00     0.000 HD 
HETATM   25  N3  NEC A 400      32.902   6.723 -18.691  1.00  0.00    -0.380 NA 
ENDBRANCH   8  14
ENDBRANCH   1   5
BRANCH   3  26
HETATM   26  C51 NEC A 400      31.620  12.294 -12.002  1.00  0.00    -0.490 C  
HETATM   27  C52 NEC A 400      32.457  13.305 -11.239  1.00  0.00    -0.708 C  
ENDBRANCH   3  26
TORSDOF 3
ENDMDL
