REMARK  6 active torsions:
REMARK  status: ('A' for Active; 'I' for Inactive)
REMARK    1  A    between atoms: OAR_2  and  CAW_3
REMARK    2  A    between atoms: CAV_5  and  NAP_10
REMARK    3  A    between atoms: CAX_6  and  CAS_13
REMARK    4  A    between atoms: NAQ_15  and  CAZ_17
REMARK    5  A    between atoms: NBA_20  and  CAO_23
REMARK    6  A    between atoms: CAO_23  and  CAT_24
ROOT
HETATM    1  CAB AQD A1201     -16.627  11.742 -16.233  1.00  0.00     0.202 C
HETATM    2  OAR AQD A1201     -16.488  13.120 -15.868  1.00  0.00    -0.347 OA
ENDROOT
BRANCH   2   3
HETATM    3  CAW AQD A1201     -15.610  13.402 -14.790  1.00  0.00     0.089 A
HETATM    4  CAK AQD A1201     -15.223  12.392 -13.905  1.00  0.00     0.054 A
HETATM    5  CAV AQD A1201     -14.344  12.722 -12.864  1.00  0.00     0.036 A
HETATM    6  CAX AQD A1201     -15.092  14.687 -14.660  1.00  0.00     0.065 A
HETATM    7  CAU AQD A1201     -13.852  14.017 -12.733  1.00  0.00     0.060 A
HETATM    8  CAL AQD A1201     -14.221  15.020 -13.624  1.00  0.00     0.037 A
HETATM    9 CLA  AQD A1201     -12.726  14.393 -11.433  1.00  0.00    -0.082 Cl
BRANCH   5  10
HETATM   10  NAP AQD A1201     -13.932  11.709 -11.911  1.00  0.00    -0.290 NA
HETATM   11  HAP AQD A1201     -13.177  11.902 -11.252  1.00  0.00     0.127 HD
HETATM   12  CAA AQD A1201     -14.593  10.429 -11.899  1.00  0.00     0.107 C
ENDBRANCH   5  10
BRANCH   6  13
HETATM   13  CAS AQD A1201     -15.511  15.805 -15.593  1.00  0.00     0.234 C
HETATM   14  OAD AQD A1201     -14.895  16.843 -15.565  1.00  0.00    -0.274 OA
HETATM   15  NAQ AQD A1201     -16.650  15.693 -16.453  1.00  0.00    -0.250 N
HETATM   16  HAQ AQD A1201     -17.208  14.840 -16.499  1.00  0.00     0.131 HD
BRANCH  15  17
HETATM   17  CAZ AQD A1201     -16.966  16.858 -17.254  1.00  0.00     0.079 C
HETATM   18  CAY AQD A1201     -17.437  16.514 -18.591  1.00  0.00     0.071 C
HETATM   19  CAC AQD A1201     -16.762  15.236 -19.160  1.00  0.00     0.026 C
HETATM   20  NBA AQD A1201     -18.813  16.299 -18.478  1.00  0.00    -0.294 NA
HETATM   21  CAM AQD A1201     -18.099  17.568 -16.526  1.00  0.00     0.036 C
HETATM   22  CAN AQD A1201     -19.320  17.350 -17.578  1.00  0.00     0.086 C
BRANCH  20  23
HETATM   23  CAO AQD A1201     -19.378  16.320 -19.788  1.00  0.00     0.120 C
BRANCH  23  24
HETATM   24  CAT AQD A1201     -20.875  16.743 -19.819  1.00  0.00    -0.033 A
HETATM   25  CAI AQD A1201     -21.222  18.005 -20.300  1.00  0.00     0.005 A
HETATM   26  CAG AQD A1201     -22.563  18.389 -20.332  1.00  0.00     0.000 A
HETATM   27  CAF AQD A1201     -23.552  17.508 -19.899  1.00  0.00     0.000 A
HETATM   28  CAH AQD A1201     -23.208  16.246 -19.429  1.00  0.00     0.000 A
HETATM   29  CAJ AQD A1201     -21.864  15.855 -19.389  1.00  0.00     0.005 A
ENDBRANCH  23  24
ENDBRANCH  20  23
ENDBRANCH  15  17
ENDBRANCH   6  13
ENDBRANCH   2   3
TORSDOF 6
