MODEL        1
REMARK THIS MODEL IS IDENTICAL TO THE INPUT LIGAND AND NOT FROM DOCKING
REMARK 921   NORMALIZED FREE ENERGY PREDICTED BY IDOCK:  -10.50 KCAL/MOL
REMARK 922        TOTAL FREE ENERGY PREDICTED BY IDOCK:  -12.64 KCAL/MOL
REMARK 923 INTER-LIGAND FREE ENERGY PREDICTED BY IDOCK:  -12.34 KCAL/MOL
REMARK 924 INTRA-LIGAND FREE ENERGY PREDICTED BY IDOCK:   -0.30 KCAL/MOL
REMARK 927      BINDING AFFINITY PREDICTED BY RF-SCORE:    0.00 PKD
ROOT
HETATM    1  C01A5EH A1200      14.569  31.755  20.378  1.00  0.00    -0.305 C  
HETATM    2  N02A5EH A1200      14.525  32.943  19.512  1.00  0.00    -0.487 NA 
HETATM    3  C03A5EH A1200      14.452  32.511  18.106  1.00  0.00    -0.229 C  
ENDROOT
BRANCH   2   4
HETATM    4  C04A5EH A1200      15.730  33.765  19.724  1.00  0.00    -0.161 C  
BRANCH   4   5
HETATM    5  C05A5EH A1200      15.364  35.138  20.280  1.00  0.00    -0.493 C  
BRANCH   5   6
HETATM    6  C06A5EH A1200      15.773  35.211  21.734  1.00  0.00    -0.595 C  
HETATM    7  C07A5EH A1200      16.751  36.014  22.195  1.00  0.00    -0.681 C  
HETATM    8  C08A5EH A1200      17.526  36.943  21.311  1.00  0.00    -0.673 A  
HETATM    9  C09A5EH A1200      18.420  36.473  20.347  1.00  0.00    -0.628 A  
HETATM   10  C10A5EH A1200      19.149  37.384  19.580  1.00  0.00    -0.876 A  
HETATM   11  C11A5EH A1200      18.997  38.757  19.793  1.00  0.00    -0.728 A  
HETATM   12  C12A5EH A1200      18.119  39.218  20.775  1.00  0.00    -0.556 A  
HETATM   13  C13A5EH A1200      17.392  38.303  21.537  1.00  0.00    -0.561 A  
HETATM   14  C14A5EH A1200      16.426  38.762  22.605  1.00  0.00    -0.432 C  
HETATM   15  O15A5EH A1200      16.962  38.468  23.894  1.00  0.00    -0.611 OA 
HETATM   16  C16A5EH A1200      17.176  37.205  24.405  1.00  0.00    -0.587 A  
HETATM   17  C17A5EH A1200      17.517  37.134  25.758  1.00  0.00    -0.773 A  
HETATM   18  C18A5EH A1200      17.770  35.908  26.373  1.00  0.00    -0.818 A  
HETATM   19  C19A5EH A1200      17.686  34.733  25.630  1.00  0.00    -1.001 A  
HETATM   20  C20A5EH A1200      17.350  34.796  24.279  1.00  0.00    -0.577 A  
HETATM   21  C21A5EH A1200      17.092  36.021  23.659  1.00  0.00    -0.565 A  
ENDBRANCH   5   6
ENDBRANCH   4   5
ENDBRANCH   2   4
TORSDOF 3
ENDMDL
