MODEL        1
REMARK THIS MODEL IS IDENTICAL TO THE INPUT LIGAND AND NOT FROM DOCKING
REMARK 921   NORMALIZED FREE ENERGY PREDICTED BY IDOCK:  -11.81 KCAL/MOL
REMARK 922        TOTAL FREE ENERGY PREDICTED BY IDOCK:  -17.12 KCAL/MOL
REMARK 923 INTER-LIGAND FREE ENERGY PREDICTED BY IDOCK:  -16.64 KCAL/MOL
REMARK 924 INTRA-LIGAND FREE ENERGY PREDICTED BY IDOCK:   -0.48 KCAL/MOL
REMARK 927      BINDING AFFINITY PREDICTED BY RF-SCORE:    0.00 PKD
ROOT
HETATM    1  CAB 9EU A 501      44.614 -10.993 230.633  1.00  0.00    -0.604 C  
HETATM    2  CAX 9EU A 501      44.525  -9.488 230.908  1.00  0.00    -0.381 A  
HETATM    3  NBJ 9EU A 501      44.238  -8.531 230.019  1.00  0.00    -0.344 NA 
HETATM    4  CBE 9EU A 501      44.251  -7.365 230.690  1.00  0.00    -0.425 A  
HETATM    5  CAP 9EU A 501      44.783  -6.642 232.855  1.00  0.00    -0.345 A  
HETATM    6  CAO 9EU A 501      44.000  -6.105 230.282  1.00  0.00    -0.890 A  
HETATM    7  NAU 9EU A 501      44.791  -8.941 232.088  1.00  0.00    -0.682 NA 
HETATM    8  CAJ 9EU A 501      44.139  -5.028 231.154  1.00  0.00    -0.583 A  
HETATM    9  CBD 9EU A 501      44.635  -7.625 231.960  1.00  0.00    -0.546 A  
HETATM   10  NAT 9EU A 501      44.550  -5.310 232.466  1.00  0.00    -0.547 NA 
ENDROOT
BRANCH   3  11
HETATM   11  CAS 9EU A 501      43.834  -8.743 228.580  1.00  0.00    -0.353 C  
BRANCH  11  12
HETATM   12  CBB 9EU A 501      44.723  -8.228 227.630  1.00  0.00    -0.523 A  
HETATM   13  CAZ 9EU A 501      46.429  -7.292 225.592  1.00  0.00    -0.458 A  
HETATM   14  FAG 9EU A 501      42.912  -7.313 226.462  1.00  0.00    -0.574 F  
HETATM   15  CAL 9EU A 501      46.938  -8.008 226.691  1.00  0.00    -0.404 A  
HETATM   16  CAY 9EU A 501      44.204  -7.525 226.538  1.00  0.00    -0.421 A  
HETATM   17  CAQ 9EU A 501      45.047  -7.042 225.531  1.00  0.00    -0.597 A  
HETATM   18  CAM 9EU A 501      46.094  -8.490 227.697  1.00  0.00    -0.392 A  
BRANCH  13  19
HETATM   19  CAV 9EU A 501      47.334  -6.819 224.609  1.00  0.00    -0.335 C  
HETATM   20  OAE 9EU A 501      48.441  -6.376 224.951  1.00  0.00    -0.519 OA 
BRANCH  19  21
HETATM   21  CBC 9EU A 501      47.073  -7.070 223.295  1.00  0.00    -0.423 A  
HETATM   22  CAR 9EU A 501      46.849  -8.304 222.863  1.00  0.00    -0.142 A  
HETATM   23  NBI 9EU A 501      46.720  -8.282 221.541  1.00  0.00    -0.362 N  
HETATM   24  CBF 9EU A 501      47.090  -7.066 221.126  1.00  0.00    -0.302 A  
HETATM   25  CAK 9EU A 501      47.796  -4.438 220.757  1.00  0.00    -0.598 A  
HETATM   26  CBA 9EU A 501      47.670  -4.980 222.039  1.00  0.00    -0.490 A  
HETATM   27  CAN 9EU A 501      47.210  -6.573 219.880  1.00  0.00    -0.465 A  
HETATM   28  CBG 9EU A 501      47.327  -6.287 222.214  1.00  0.00    -0.454 A  
HETATM   29  CAI 9EU A 501      47.562  -5.246 219.650  1.00  0.00    -0.531 A  
BRANCH  23  30
HETATM   30  CAW 9EU A 501      46.592  -9.415 220.807  1.00  0.00    -0.363 C  
HETATM   31  OAF 9EU A 501      47.480  -9.689 219.992  1.00  0.00    -0.566 OA 
BRANCH  30  32
HETATM   32  NBH 9EU A 501      45.601 -10.320 221.078  1.00  0.00    -0.308 N  
HETATM   33  CAD 9EU A 501      45.577 -11.593 220.337  1.00  0.00    -0.321 C  
HETATM   34  CAC 9EU A 501      44.553 -10.025 222.061  1.00  0.00    -0.295 C  
ENDBRANCH  30  32
ENDBRANCH  23  30
BRANCH  26  35
HETATM   35  CAH 9EU A 501      47.896  -4.088 223.105  1.00  0.00    -0.486 C  
HETATM   36  CAA 9EU A 501      48.081  -3.379 223.939  1.00  0.00    -0.604 C  
ENDBRANCH  26  35
ENDBRANCH  19  21
ENDBRANCH  13  19
ENDBRANCH  11  12
ENDBRANCH   3  11
TORSDOF 7
ENDMDL
