MODEL        1
REMARK THIS MODEL IS IDENTICAL TO THE INPUT LIGAND AND NOT FROM DOCKING
REMARK 921   NORMALIZED FREE ENERGY PREDICTED BY IDOCK:  -11.04 KCAL/MOL
REMARK 922        TOTAL FREE ENERGY PREDICTED BY IDOCK:  -17.69 KCAL/MOL
REMARK 923 INTER-LIGAND FREE ENERGY PREDICTED BY IDOCK:  -16.84 KCAL/MOL
REMARK 924 INTRA-LIGAND FREE ENERGY PREDICTED BY IDOCK:   -0.85 KCAL/MOL
REMARK 927      BINDING AFFINITY PREDICTED BY RF-SCORE:    0.00 PKD
ROOT
HETATM    1  C1  NGI A1311      -0.049 -18.689  28.708  1.00  0.00    -0.807 C  
HETATM    2  C2  NGI A1311      -1.291 -19.376  28.189  1.00  0.00    -0.517 C  
ENDROOT
BRANCH   2   3
HETATM    3  N1  NGI A1311      -2.342 -18.432  27.844  1.00  0.00    -0.561 N  
HETATM    4  H1  NGI A1311      -2.396 -17.552  28.356  1.00  0.00     0.000 HD 
HETATM    5  C3  NGI A1311      -3.240 -18.670  26.885  1.00  0.00    -0.358 C  
HETATM    6  O1  NGI A1311      -3.388 -19.747  26.322  1.00  0.00    -0.642 OA 
BRANCH   5   7
HETATM    7  C4  NGI A1311      -4.107 -17.516  26.505  1.00  0.00    -0.424 C  
HETATM    8  C7  NGI A1311      -5.559 -17.908  26.691  1.00  0.00    -0.478 C  
HETATM    9  C6  NGI A1311      -6.271 -17.300  25.500  1.00  0.00    -0.410 C  
HETATM   10  O4  NGI A1311      -6.064 -17.452  27.948  1.00  0.00    -0.857 OA 
HETATM   11  C5  NGI A1311      -5.192 -17.178  24.429  1.00  0.00    -0.407 C  
HETATM   12  O3  NGI A1311      -6.756 -15.993  25.832  1.00  0.00    -0.715 OA 
HETATM   13  H4  NGI A1311      -6.974 -17.698  28.065  1.00  0.00     0.000 HD 
HETATM   14  H3  NGI A1311      -7.428 -16.069  26.499  1.00  0.00     0.000 HD 
HETATM   15  O2  NGI A1311      -3.934 -17.217  25.114  1.00  0.00    -0.414 OA 
BRANCH  11  16
HETATM   16  N2  NGI A1311      -5.248 -18.287  23.430  1.00  0.00    -0.498 NA 
HETATM   17  C23 NGI A1311      -5.969 -18.318  22.303  1.00  0.00    -0.533 A  
HETATM   18  C9  NGI A1311      -5.712 -19.521  21.665  1.00  0.00    -0.288 A  
HETATM   19  C10 NGI A1311      -6.349 -19.804  20.460  1.00  0.00    -0.430 A  
HETATM   20  N3  NGI A1311      -4.827 -20.200  22.421  1.00  0.00    -0.726 NA 
HETATM   21  C8  NGI A1311      -4.553 -19.433  23.497  1.00  0.00    -0.440 A  
HETATM   22  N4  NGI A1311      -6.112 -20.977  19.822  1.00  0.00    -0.815 NA 
HETATM   23  N5  NGI A1311      -7.206 -18.901  19.929  1.00  0.00    -0.478 NA 
HETATM   24  C11 NGI A1311      -7.453 -17.723  20.562  1.00  0.00    -0.311 A  
HETATM   25  H42 NGI A1311      -6.581 -21.179  18.939  1.00  0.00     0.000 HD 
HETATM   26  H41 NGI A1311      -5.466 -21.658  20.222  1.00  0.00     0.000 HD 
HETATM   27  N7  NGI A1311      -6.835 -17.446  21.736  1.00  0.00    -0.471 NA 
BRANCH  24  28
HETATM   28  N6  NGI A1311      -8.312 -16.803  20.048  1.00  0.00    -0.576 NA 
HETATM   29  H6  NGI A1311      -8.598 -16.018  20.633  1.00  0.00     0.000 HD 
BRANCH  28  30
HETATM   30  C12 NGI A1311      -8.838 -16.895  18.698  1.00  0.00    -0.442 C  
BRANCH  30  31
HETATM   31  C13 NGI A1311     -10.139 -17.690  18.632  1.00  0.00    -0.503 C  
BRANCH  31  32
HETATM   32  C14 NGI A1311     -10.447 -18.170  17.229  1.00  0.00    -0.415 A  
HETATM   33  C15 NGI A1311      -9.785 -19.280  16.693  1.00  0.00    -0.553 A  
HETATM   34  C16 NGI A1311     -10.083 -19.723  15.402  1.00  0.00    -0.486 A  
HETATM   35  C17 NGI A1311     -11.051 -19.053  14.643  1.00  0.00    -0.304 A  
HETATM   36  C21 NGI A1311     -11.713 -17.944  15.180  1.00  0.00    -0.390 A  
HETATM   37  C22 NGI A1311     -11.413 -17.505  16.471  1.00  0.00    -0.467 A  
BRANCH  35  38
HETATM   38  C18 NGI A1311     -11.385 -19.522  13.243  1.00  0.00    -0.223 C  
BRANCH  38  39
HETATM   39  C19 NGI A1311     -12.427 -20.640  13.343  1.00  0.00    -0.312 C  
HETATM   40  C20 NGI A1311     -12.696 -21.295  12.004  1.00  0.00    -0.240 C  
HETATM   41  O6  NGI A1311     -11.704 -21.594  11.163  1.00  0.00    -0.200 OA 
HETATM   42  O5  NGI A1311     -13.844 -21.568  11.681  1.00  0.00    -0.154 OA 
ENDBRANCH  38  39
ENDBRANCH  35  38
ENDBRANCH  31  32
ENDBRANCH  30  31
ENDBRANCH  28  30
ENDBRANCH  24  28
ENDBRANCH  11  16
ENDBRANCH   5   7
ENDBRANCH   2   3
TORSDOF 9
ENDMDL
