MODEL        1
REMARK THIS MODEL IS IDENTICAL TO THE INPUT LIGAND AND NOT FROM DOCKING
REMARK 921   NORMALIZED FREE ENERGY PREDICTED BY IDOCK:   -7.56 KCAL/MOL
REMARK 922        TOTAL FREE ENERGY PREDICTED BY IDOCK:  -11.55 KCAL/MOL
REMARK 923 INTER-LIGAND FREE ENERGY PREDICTED BY IDOCK:  -11.09 KCAL/MOL
REMARK 924 INTRA-LIGAND FREE ENERGY PREDICTED BY IDOCK:   -0.46 KCAL/MOL
REMARK 927      BINDING AFFINITY PREDICTED BY RF-SCORE:    0.00 PKD
ROOT
HETATM    1 CLA  DGV A1201     -12.018  32.729   3.300  1.00  0.00    -0.637 Cl 
HETATM    2  CBA DGV A1201     -10.344  33.307   3.412  1.00  0.00    -0.462 A  
HETATM    3  CAZ DGV A1201      -9.494  33.201   2.284  1.00  0.00    -0.371 A  
HETATM    4  CBD DGV A1201      -8.182  33.684   2.434  1.00  0.00    -0.448 A  
HETATM    5  CBB DGV A1201      -9.884  33.850   4.600  1.00  0.00     0.055 A  
HETATM    6  CBE DGV A1201      -7.765  34.224   3.650  1.00  0.00    -0.589 A  
HETATM    7  CBF DGV A1201      -8.620  34.301   4.697  1.00  0.00    -0.061 A  
HETATM    8 CLB  DGV A1201      -7.006  33.627   1.098  1.00  0.00    -0.357 Cl 
ENDROOT
BRANCH   3   9
HETATM    9  CAX DGV A1201     -10.113  32.565   0.972  1.00  0.00    -0.356 C  
HETATM   10  CAT DGV A1201      -9.975  31.104  -0.983  1.00  0.00     0.003 C  
HETATM   11  CAU DGV A1201      -9.279  31.572   0.253  1.00  0.00    -0.273 C  
HETATM   12  NAS DGV A1201     -10.291  32.044  -1.821  1.00  0.00    -0.171 NA 
HETATM   13  CAV DGV A1201     -11.124  32.959  -1.275  1.00  0.00    -0.373 C  
HETATM   14  CAW DGV A1201     -10.516  33.664  -0.001  1.00  0.00    -0.562 C  
BRANCH  12  15
HETATM   15  CAR DGV A1201     -11.016  31.493  -2.739  1.00  0.00    -0.254 C  
BRANCH  15  16
HETATM   16  CAQ DGV A1201     -10.114  31.122  -3.936  1.00  0.00    -0.154 C  
BRANCH  16  17
HETATM   17  CAP DGV A1201     -10.982  30.341  -4.959  1.00  0.00    -0.247 C  
BRANCH  17  18
HETATM   18  NAO DGV A1201     -10.066  29.783  -6.013  1.00  0.00    -0.451 N  
HETATM   19  C   DGV A1201     -10.146  28.336  -6.424  1.00  0.00    -0.241 C  
HETATM   20  HAO DGV A1201      -9.380  30.394  -6.456  1.00  0.00     0.000 HD 
HETATM   21  O   DGV A1201     -10.967  27.734  -5.845  1.00  0.00    -0.174 OA 
BRANCH  19  22
HETATM   22  CA  DGV A1201      -9.339  27.427  -7.464  1.00  0.00    -0.275 C  
HETATM   23  CB  DGV A1201      -9.485  27.996  -8.859  1.00  0.00    -0.485 C  
HETATM   24  CG  DGV A1201      -8.121  27.723  -9.546  1.00  0.00    -0.557 C  
HETATM   25  CD  DGV A1201      -7.213  27.127  -8.411  1.00  0.00    -0.366 C  
HETATM   26  N   DGV A1201      -7.923  27.421  -7.193  1.00  0.00    -0.313 NA 
BRANCH  26  27
HETATM   27  CAG DGV A1201      -7.477  28.651  -6.601  1.00  0.00    -0.319 C  
BRANCH  27  28
HETATM   28  CAF DGV A1201      -7.239  28.726  -5.085  1.00  0.00    -0.384 A  
HETATM   29  CAE DGV A1201      -7.295  27.657  -4.334  1.00  0.00    -0.377 A  
HETATM   30  CAD DGV A1201      -7.041  27.785  -2.824  1.00  0.00    -0.493 A  
HETATM   31  CAA DGV A1201      -6.771  28.951  -2.299  1.00  0.00    -0.503 A  
HETATM   32  CAB DGV A1201      -6.704  30.194  -3.185  1.00  0.00    -0.297 A  
HETATM   33  CAC DGV A1201      -6.919  30.091  -4.481  1.00  0.00    -0.599 A  
ENDBRANCH  27  28
ENDBRANCH  26  27
ENDBRANCH  19  22
ENDBRANCH  17  18
ENDBRANCH  16  17
ENDBRANCH  15  16
ENDBRANCH  12  15
ENDBRANCH   3   9
TORSDOF 8
ENDMDL
