REMARK  9 active torsions:
REMARK  status: ('A' for Active; 'I' for Inactive)
REMARK    1  A    between atoms: C1_1  and  O1_13
REMARK    2  A    between atoms: O1_13  and  C1'_14
REMARK    3  A    between atoms: C1'_14  and  C2'_15
REMARK    4  A    between atoms: C5_4  and  C6_22
REMARK    5  A    between atoms: C2'_15  and  C3'_16
REMARK    6  A    between atoms: C3'_16  and  C4'_17
REMARK    7  A    between atoms: C4'_17  and  C5'_18
REMARK    8  A    between atoms: C5'_18  and  C6'_19
REMARK    9  A    between atoms: C6'_19  and  C7'_20
ROOT
HETATM    1  C1  BOG A 405      14.441  46.175  35.195  1.00  0.00     0.282 C
HETATM    2  O3  BOG A 405      16.967  45.939  37.629  1.00  0.00    -0.386 OA
HETATM    3  O5  BOG A 405      13.680  44.966  35.281  1.00  0.00    -0.341 OA
HETATM    4  C5  BOG A 405      14.252  44.016  36.168  1.00  0.00     0.178 C
HETATM    5  H4  BOG A 405      14.266  43.603  38.838  1.00  0.00     0.210 HD
HETATM    6  C4  BOG A 405      14.915  44.729  37.323  1.00  0.00     0.177 C
HETATM    7  H2  BOG A 405      17.424  45.039  34.431  1.00  0.00     0.210 HD
HETATM    8  C2  BOG A 405      15.939  45.922  35.406  1.00  0.00     0.201 C
HETATM    9  H3  BOG A 405      17.143  45.464  38.433  1.00  0.00     0.210 HD
HETATM   10  O4  BOG A 405      15.088  43.873  38.446  1.00  0.00    -0.386 OA
HETATM   11  C3  BOG A 405      16.222  45.158  36.700  1.00  0.00     0.179 C
HETATM   12  O2  BOG A 405      16.496  45.196  34.300  1.00  0.00    -0.384 OA
ENDROOT
BRANCH   1  13
HETATM   13  O1  BOG A 405      13.994  47.029  36.239  1.00  0.00    -0.349 OA
BRANCH  13  14
HETATM   14  C1' BOG A 405      12.580  47.054  36.438  1.00  0.00     0.163 C
BRANCH  14  15
HETATM   15  C2' BOG A 405      11.865  46.963  35.100  1.00  0.00     0.028 C
BRANCH  15  16
HETATM   16  C3' BOG A 405      10.582  47.772  35.134  1.00  0.00     0.002 C
BRANCH  16  17
HETATM   17  C4' BOG A 405      10.381  48.502  33.817  1.00  0.00     0.000 C
BRANCH  17  18
HETATM   18  C5' BOG A 405       9.174  47.963  33.064  1.00  0.00    -0.000 C
BRANCH  18  19
HETATM   19  C6' BOG A 405       7.880  48.366  33.755  1.00  0.00    -0.000 C
BRANCH  19  20
HETATM   20  C7' BOG A 405       7.355  47.230  34.612  1.00  0.00    -0.003 C
HETATM   21  C8' BOG A 405       5.872  47.363  34.831  1.00  0.00     0.004 C
ENDBRANCH  19  20
ENDBRANCH  18  19
ENDBRANCH  17  18
ENDBRANCH  16  17
ENDBRANCH  15  16
ENDBRANCH  14  15
ENDBRANCH  13  14
ENDBRANCH   1  13
BRANCH   4  22
HETATM   22  C6  BOG A 405      13.235  43.038  36.684  1.00  0.00     0.190 C
HETATM   23  H6  BOG A 405      13.309  41.594  37.923  1.00  0.00     0.210 HD
HETATM   24  O6  BOG A 405      13.952  42.212  37.597  1.00  0.00    -0.392 OA
ENDBRANCH   4  22
TORSDOF 9
