REMARK  6 active torsions:
REMARK  status: ('A' for Active; 'I' for Inactive)
REMARK    1  A    between atoms: C11_4  and  O10_9
REMARK    2  A    between atoms: O10_9  and  C1_10
REMARK    3  A    between atoms: C15_8  and  N19_19
REMARK    4  A    between atoms: N19_19  and  C20_21
REMARK    5  A    between atoms: C20_21  and  C21_22
REMARK    6  A    between atoms: C20_21  and  C23_24
ROOT
HETATM    1  C18 1Q5 A1204       7.538  38.319 -25.537  1.00  0.00     0.066 C
HETATM    2  C13 1Q5 A1204       6.044  38.287 -25.531  1.00  0.00     0.043 A
HETATM    3  N12 1Q5 A1204       5.391  38.476 -26.683  1.00  0.00    -0.228 NA
HETATM    4  C11 1Q5 A1204       4.062  38.462 -26.749  1.00  0.00     0.178 A
HETATM    5  C16 1Q5 A1204       3.276  38.234 -25.531  1.00  0.00     0.017 A
HETATM    6  C17 1Q5 A1204       1.775  38.211 -25.556  1.00  0.00     0.050 C
HETATM    7  C14 1Q5 A1204       5.391  38.064 -24.338  1.00  0.00     0.043 A
HETATM    8  C15 1Q5 A1204       4.014  38.027 -24.282  1.00  0.00     0.024 A
ENDROOT
BRANCH   4   9
HETATM    9  O10 1Q5 A1204       3.430  38.661 -27.927  1.00  0.00    -0.290 OA
BRANCH   9  10
HETATM   10  C1  1Q5 A1204       4.092  38.869 -29.100  1.00  0.00     0.091 A
HETATM   11  C2  1Q5 A1204       4.407  37.726 -29.966  1.00  0.00    -0.019 A
HETATM   12  C8  1Q5 A1204       4.218  41.427 -28.764  1.00  0.00     0.046 C
HETATM   13  C3  1Q5 A1204       5.062  37.922 -31.164  1.00  0.00     0.009 A
HETATM   14  C6  1Q5 A1204       4.500  40.205 -29.581  1.00  0.00    -0.019 A
HETATM   15  C5  1Q5 A1204       5.159  40.318 -30.794  1.00  0.00     0.009 A
HETATM   16  C9  1Q5 A1204       4.006  36.357 -29.530  1.00  0.00     0.046 C
HETATM   17  C7  1Q5 A1204       6.144  39.339 -32.876  1.00  0.00     0.044 C
HETATM   18  C4  1Q5 A1204       5.430  39.192 -31.566  1.00  0.00    -0.050 A
ENDBRANCH   9  10
ENDBRANCH   4   9
BRANCH   8  19
HETATM   19  N19 1Q5 A1204       3.363  37.814 -23.124  1.00  0.00    -0.285 NA
HETATM   20  H19 1Q5 A1204       2.440  37.381 -23.143  1.00  0.00     0.128 HD
BRANCH  19  21
HETATM   21  C20 1Q5 A1204       3.944  38.185 -21.854  1.00  0.00     0.058 C
BRANCH  21  22
HETATM   22  C21 1Q5 A1204       3.302  39.441 -21.308  1.00  0.00     0.015 C
HETATM   23  C22 1Q5 A1204       3.175  40.482 -22.388  1.00  0.00     0.005 C
ENDBRANCH  21  22
BRANCH  21  24
HETATM   24  C23 1Q5 A1204       3.688  37.064 -20.875  1.00  0.00     0.015 C
HETATM   25  C24 1Q5 A1204       3.968  35.731 -21.524  1.00  0.00     0.005 C
ENDBRANCH  21  24
ENDBRANCH  19  21
ENDBRANCH   8  19
TORSDOF 6
