MODEL        1
REMARK THIS MODEL IS IDENTICAL TO THE INPUT LIGAND AND NOT FROM DOCKING
REMARK 921   NORMALIZED FREE ENERGY PREDICTED BY IDOCK:  -15.91 KCAL/MOL
REMARK 922        TOTAL FREE ENERGY PREDICTED BY IDOCK:  -20.58 KCAL/MOL
REMARK 923 INTER-LIGAND FREE ENERGY PREDICTED BY IDOCK:  -19.63 KCAL/MOL
REMARK 924 INTRA-LIGAND FREE ENERGY PREDICTED BY IDOCK:   -0.95 KCAL/MOL
REMARK 927      BINDING AFFINITY PREDICTED BY RF-SCORE:    0.00 PKD
ROOT
HETATM    1  F1  1KS A 601     -17.152  20.689  19.948  1.00  0.00    -0.590 F  
HETATM    2  C1  1KS A 601     -18.197  21.356  20.445  1.00  0.00    -0.466 A  
HETATM    3  C2  1KS A 601     -18.437  22.788  20.052  1.00  0.00    -0.675 A  
HETATM    4  C3  1KS A 601     -19.516  23.488  20.569  1.00  0.00    -0.530 A  
HETATM    5  C5  1KS A 601     -20.436  22.780  21.549  1.00  0.00    -0.473 A  
HETATM    6  C4  1KS A 601     -19.764  24.919  20.179  1.00  0.00    -0.483 C  
HETATM    7  F4  1KS A 601     -20.932  25.139  19.597  1.00  0.00    -0.643 F  
HETATM    8  F3  1KS A 601     -19.729  25.684  21.259  1.00  0.00    -0.545 F  
HETATM    9  C7  1KS A 601     -19.051  20.719  21.320  1.00  0.00    -0.610 A  
HETATM   10  C6  1KS A 601     -20.217  21.473  21.901  1.00  0.00    -0.504 A  
HETATM   11  F2  1KS A 601     -18.823  25.330  19.334  1.00  0.00    -0.674 F  
ENDROOT
BRANCH   5  12
HETATM   12  C8  1KS A 601     -21.659  23.464  22.111  1.00  0.00    -0.401 C  
HETATM   13  N1  1KS A 601     -22.920  23.481  21.368  1.00  0.00    -0.353 N  
HETATM   14  O1  1KS A 601     -21.546  24.022  23.192  1.00  0.00    -0.623 OA 
HETATM   15  C9  1KS A 601     -23.046  22.801  20.068  1.00  0.00    -0.256 C  
BRANCH  13  16
HETATM   16  C10 1KS A 601     -24.110  24.128  21.979  1.00  0.00    -0.411 C  
HETATM   17  C11 1KS A 601     -24.884  23.123  22.810  1.00  0.00    -0.458 C  
HETATM   18  C12 1KS A 601     -25.989  23.826  23.570  1.00  0.00    -0.287 C  
HETATM   19  N2  1KS A 601     -26.828  24.719  22.778  1.00  0.00    -0.415 NA 
HETATM   20  C13 1KS A 601     -26.092  25.643  21.902  1.00  0.00    -0.463 C  
HETATM   21  C14 1KS A 601     -24.985  24.988  21.083  1.00  0.00    -0.514 C  
BRANCH  19  22
HETATM   22  C15 1KS A 601     -28.093  24.167  22.233  1.00  0.00    -0.392 A  
HETATM   23  C16 1KS A 601     -29.191  23.924  23.115  1.00  0.00    -0.462 A  
HETATM   24  C17 1KS A 601     -30.474  23.540  22.529  1.00  0.00    -0.628 A  
HETATM   25  C18 1KS A 601     -31.559  23.270  23.397  1.00  0.00    -0.778 A  
HETATM   26  C22 1KS A 601     -30.505  23.422  21.130  1.00  0.00    -0.427 A  
HETATM   27  C21 1KS A 601     -29.118  24.092  24.493  1.00  0.00    -0.632 A  
HETATM   28  C19 1KS A 601     -31.431  23.411  24.773  1.00  0.00    -0.747 A  
HETATM   29  N3  1KS A 601     -29.471  23.679  20.354  1.00  0.00    -0.788 NA 
HETATM   30  C20 1KS A 601     -30.208  23.845  25.327  1.00  0.00    -0.745 A  
HETATM   31  N4  1KS A 601     -28.278  24.062  20.906  1.00  0.00    -0.716 NA 
BRANCH  26  32
HETATM   32  C23 1KS A 601     -31.860  23.062  20.461  1.00  0.00    -0.411 A  
HETATM   33  C25 1KS A 601     -33.958  23.144  19.728  1.00  0.00    -0.516 A  
HETATM   34  C24 1KS A 601     -32.978  23.898  20.402  1.00  0.00    -0.716 A  
HETATM   35  N5  1KS A 601     -33.510  21.898  19.358  1.00  0.00    -0.393 NA 
HETATM   36  N6  1KS A 601     -32.240  21.879  19.793  1.00  0.00    -0.420 NA 
HETATM   37  C26 1KS A 601     -31.409  20.738  19.659  1.00  0.00    -0.485 C  
ENDBRANCH  26  32
ENDBRANCH  19  22
ENDBRANCH  13  16
ENDBRANCH   5  12
TORSDOF 4
ENDMDL
