REMARK  4 active torsions:
REMARK  status: ('A' for Active; 'I' for Inactive)
REMARK    1  A    between atoms: C6_8  and  C7_10
REMARK    2  A    between atoms: C8_11  and  C9_12
REMARK    3  A    between atoms: C10_14  and  C11_15
REMARK    4  A    between atoms: C12_16  and  C13_17
ROOT
HETATM    1  C1  RET B1000      20.508  43.021  11.454  1.00  0.00    -0.010 C
HETATM    2  C2  RET B1000      19.304  43.377  10.524  1.00  0.00     0.011 C
HETATM    3  C17 RET B1000      19.963  42.406  12.764  1.00  0.00     0.016 C
HETATM    4  C16 RET B1000      21.176  44.348  11.824  1.00  0.00     0.016 C
HETATM    5  C3  RET B1000      18.932  42.335   9.499  1.00  0.00     0.005 C
HETATM    6  C4  RET B1000      20.136  41.922   8.667  1.00  0.00     0.031 C
HETATM    7  C5  RET B1000      21.355  41.540   9.495  1.00  0.00    -0.069 C
HETATM    8  C6  RET B1000      21.542  42.032  10.769  1.00  0.00    -0.043 C
HETATM    9  C18 RET B1000      22.267  40.602   8.747  1.00  0.00     0.039 C
ENDROOT
BRANCH   8  10
HETATM   10  C7  RET B1000      22.781  41.655  11.589  1.00  0.00     0.004 C
HETATM   11  C8  RET B1000      23.092  40.479  12.137  1.00  0.00     0.003 C
BRANCH  11  12
HETATM   12  C9  RET B1000      24.310  40.075  12.869  1.00  0.00    -0.050 C
HETATM   13  C19 RET B1000      25.439  41.083  12.998  1.00  0.00     0.044 C
HETATM   14  C10 RET B1000      24.479  38.842  13.392  1.00  0.00     0.003 C
BRANCH  14  15
HETATM   15  C11 RET B1000      23.515  37.773  13.389  1.00  0.00     0.001 C
HETATM   16  C12 RET B1000      23.663  36.486  13.822  1.00  0.00     0.003 C
BRANCH  16  17
HETATM   17  C13 RET B1000      22.626  35.500  13.852  1.00  0.00    -0.055 C
HETATM   18  C14 RET B1000      22.900  34.209  14.234  1.00  0.00    -0.027 C
HETATM   19  C20 RET B1000      21.234  35.920  13.431  1.00  0.00     0.043 C
HETATM   20  C15 RET B1000      21.904  33.182  14.254  1.00  0.00     0.035 C
ENDBRANCH  16  17
ENDBRANCH  14  15
ENDBRANCH  11  12
ENDBRANCH   8  10
TORSDOF 4
