MODEL        1
REMARK THIS MODEL IS IDENTICAL TO THE INPUT LIGAND AND NOT FROM DOCKING
REMARK 921   NORMALIZED FREE ENERGY PREDICTED BY IDOCK:   -6.81 KCAL/MOL
REMARK 922        TOTAL FREE ENERGY PREDICTED BY IDOCK:   -9.83 KCAL/MOL
REMARK 923 INTER-LIGAND FREE ENERGY PREDICTED BY IDOCK:   -9.60 KCAL/MOL
REMARK 924 INTRA-LIGAND FREE ENERGY PREDICTED BY IDOCK:   -0.24 KCAL/MOL
REMARK 927      BINDING AFFINITY PREDICTED BY RF-SCORE:    0.00 PKD
ROOT
HETATM    1  C10 8JN A2401      22.190 171.293  15.602  1.00  0.00    -0.438 C  
ENDROOT
BRANCH   1   2
HETATM    2  C11 8JN A2401      23.267 170.451  14.824  1.00  0.00    -0.383 C  
HETATM    3  O12 8JN A2401      24.236 171.315  14.282  1.00  0.00    -0.435 OA 
HETATM    4  H12 8JN A2401      24.887 170.806  13.812  1.00  0.00     0.000 HD 
ENDBRANCH   1   2
BRANCH   1   5
HETATM    5  C09 8JN A2401      22.714 172.478  16.511  1.00  0.00    -0.398 C  
BRANCH   5   6
HETATM    6  N08 8JN A2401      21.624 173.294  17.284  1.00  0.00    -0.366 N  
HETATM    7  C13 8JN A2401      20.304 172.803  17.581  1.00  0.00    -0.244 A  
HETATM    8  N17 8JN A2401      19.646 171.569  17.303  1.00  0.00    -0.331 NA 
HETATM    9  C16 8JN A2401      18.363 171.597  17.809  1.00  0.00    -0.313 A  
HETATM   10  H17 8JN A2401      20.062 170.782  16.804  1.00  0.00     0.000 HD 
HETATM   11  N15 8JN A2401      18.205 172.848  18.410  1.00  0.00    -0.121 NA 
HETATM   12  O07 8JN A2401      23.147 175.068  17.463  1.00  0.00    -0.353 OA 
HETATM   13  C06 8JN A2401      22.057 174.651  17.703  1.00  0.00    -0.259 C  
HETATM   14  C14 8JN A2401      19.389 173.610  18.283  1.00  0.00    -0.226 A  
HETATM   15  C27 8JN A2401      19.737 175.014  18.756  1.00  0.00    -0.275 C  
HETATM   16  O28 8JN A2401      19.015 175.726  19.342  1.00  0.00    -0.553 OA 
HETATM   17  N05 8JN A2401      21.078 175.446  18.422  1.00  0.00    -0.320 N  
BRANCH   9  18
HETATM   18  C18 8JN A2401      17.288 170.444  17.727  1.00  0.00    -0.383 C  
HETATM   19  C24 8JN A2401      16.490 168.166  17.105  1.00  0.00     0.116 C  
HETATM   20  C25 8JN A2401      17.369 169.284  16.538  1.00  0.00    -0.274 C  
HETATM   21  C20 8JN A2401      14.875 169.875  17.986  1.00  0.00    -0.238 C  
HETATM   22  C22 8JN A2401      16.960 169.580  19.024  1.00  0.00    -0.409 C  
HETATM   23  C21 8JN A2401      15.447 169.654  19.346  1.00  0.00    -0.406 C  
HETATM   24  C23 8JN A2401      17.209 168.182  18.548  1.00  0.00    -0.319 C  
HETATM   25  C26 8JN A2401      15.022 168.649  17.123  1.00  0.00    -0.199 C  
HETATM   26  C19 8JN A2401      15.843 170.854  17.252  1.00  0.00    -0.084 C  
ENDBRANCH   9  18
BRANCH  17  27
HETATM   27  C04 8JN A2401      21.513 176.886  18.886  1.00  0.00    -0.428 C  
BRANCH  27  28
HETATM   28  C03 8JN A2401      21.273 178.010  17.829  1.00  0.00    -0.545 C  
BRANCH  28  29
HETATM   29  C02 8JN A2401      22.414 178.165  16.774  1.00  0.00    -0.641 C  
HETATM   30  C01 8JN A2401      22.172 179.345  15.781  1.00  0.00    -0.771 C  
ENDBRANCH  28  29
ENDBRANCH  27  28
ENDBRANCH  17  27
ENDBRANCH   5   6
ENDBRANCH   1   5
TORSDOF 7
ENDMDL
