MODEL        1
REMARK THIS MODEL IS IDENTICAL TO THE INPUT LIGAND AND NOT FROM DOCKING
REMARK 921   NORMALIZED FREE ENERGY PREDICTED BY IDOCK:   -5.80 KCAL/MOL
REMARK 922        TOTAL FREE ENERGY PREDICTED BY IDOCK:   -7.73 KCAL/MOL
REMARK 923 INTER-LIGAND FREE ENERGY PREDICTED BY IDOCK:   -7.16 KCAL/MOL
REMARK 924 INTRA-LIGAND FREE ENERGY PREDICTED BY IDOCK:   -0.57 KCAL/MOL
REMARK 927      BINDING AFFINITY PREDICTED BY RF-SCORE:    0.00 PKD
ROOT
HETATM    1  C1  RET A 401      19.103  44.882  60.926  1.00  0.00    -0.685 C  
HETATM    2  C17 RET A 401      19.055  43.888  59.768  1.00  0.00    -0.890 C  
HETATM    3  C6  RET A 401      17.658  45.045  61.611  1.00  0.00    -0.613 C  
HETATM    4  C16 RET A 401      19.652  46.237  60.406  1.00  0.00    -1.088 C  
HETATM    5  C5  RET A 401      17.445  44.693  62.925  1.00  0.00    -0.790 C  
HETATM    6  C2  RET A 401      20.183  44.394  61.960  1.00  0.00    -0.949 C  
HETATM    7  C18 RET A 401      16.143  44.805  63.696  1.00  0.00    -0.692 C  
HETATM    8  C4  RET A 401      18.556  44.105  63.787  1.00  0.00    -1.101 C  
HETATM    9  C3  RET A 401      19.741  43.562  63.036  1.00  0.00    -1.069 C  
ENDROOT
BRANCH   3  10
HETATM   10  C7  RET A 401      16.538  45.602  60.723  1.00  0.00    -0.374 C  
HETATM   11  C8  RET A 401      15.759  44.810  60.001  1.00  0.00    -0.750 C  
BRANCH  11  12
HETATM   12  C9  RET A 401      14.568  45.022  59.149  1.00  0.00    -0.560 C  
HETATM   13  C10 RET A 401      13.883  43.851  58.981  1.00  0.00    -0.749 C  
HETATM   14  C19 RET A 401      14.223  46.384  58.584  1.00  0.00    -0.615 C  
BRANCH  13  15
HETATM   15  C11 RET A 401      12.669  43.422  58.343  1.00  0.00    -0.668 C  
HETATM   16  C12 RET A 401      12.416  42.096  58.382  1.00  0.00    -0.595 C  
BRANCH  16  17
HETATM   17  C13 RET A 401      11.228  41.308  58.041  1.00  0.00    -0.643 C  
HETATM   18  C14 RET A 401      11.374  39.950  58.125  1.00  0.00     0.797 C  
HETATM   19  C20 RET A 401       9.960  42.010  57.631  1.00  0.00    -0.515 C  
HETATM   20  C15 RET A 401      10.410  38.870  57.868  1.00  0.00     5.390 C  
ENDBRANCH  16  17
ENDBRANCH  13  15
ENDBRANCH  11  12
ENDBRANCH   3  10
TORSDOF 4
ENDMDL
