REMARK  8 active torsions:
REMARK  status: ('A' for Active; 'I' for Inactive)
REMARK    1  A    between atoms: CAZ_3  and  CAX_9
REMARK    2  A    between atoms: NAS_12  and  CAR_15
REMARK    3  A    between atoms: CAR_15  and  CAQ_16
REMARK    4  A    between atoms: CAQ_16  and  CAP_17
REMARK    5  A    between atoms: CAP_17  and  NAO_18
REMARK    6  A    between atoms: C_19  and  CA_22
REMARK    7  A    between atoms: N_26  and  CAG_27
REMARK    8  A    between atoms: CAG_27  and  CAF_28
ROOT
HETATM    1 CLA  DGV A1201     -12.018  32.729   3.300  1.00  0.00    -0.083 Cl
HETATM    2  CBA DGV A1201     -10.344  33.307   3.412  1.00  0.00     0.046 A
HETATM    3  CAZ DGV A1201      -9.494  33.201   2.284  1.00  0.00    -0.008 A
HETATM    4  CBD DGV A1201      -8.182  33.684   2.434  1.00  0.00     0.046 A
HETATM    5  CBB DGV A1201      -9.884  33.850   4.600  1.00  0.00     0.020 A
HETATM    6  CBE DGV A1201      -7.765  34.224   3.650  1.00  0.00     0.020 A
HETATM    7  CBF DGV A1201      -8.620  34.301   4.697  1.00  0.00     0.003 A
HETATM    8 CLB  DGV A1201      -7.006  33.627   1.098  1.00  0.00    -0.083 Cl
ENDROOT
BRANCH   3   9
HETATM    9  CAX DGV A1201     -10.113  32.565   0.972  1.00  0.00     0.024 C
HETATM   10  CAT DGV A1201      -9.975  31.104  -0.983  1.00  0.00     0.085 C
HETATM   11  CAU DGV A1201      -9.279  31.572   0.253  1.00  0.00     0.023 C
HETATM   12  NAS DGV A1201     -10.291  32.044  -1.821  1.00  0.00    -0.302 NA
HETATM   13  CAV DGV A1201     -11.124  32.959  -1.275  1.00  0.00     0.085 C
HETATM   14  CAW DGV A1201     -10.516  33.664  -0.001  1.00  0.00     0.023 C
BRANCH  12  15
HETATM   15  CAR DGV A1201     -11.016  31.493  -2.739  1.00  0.00     0.085 C
BRANCH  15  16
HETATM   16  CAQ DGV A1201     -10.114  31.122  -3.936  1.00  0.00     0.031 C
BRANCH  16  17
HETATM   17  CAP DGV A1201     -10.982  30.341  -4.959  1.00  0.00     0.090 C
BRANCH  17  18
HETATM   18  NAO DGV A1201     -10.066  29.783  -6.013  1.00  0.00    -0.257 N
HETATM   19  C   DGV A1201     -10.146  28.336  -6.424  1.00  0.00     0.218 C
HETATM   20  HAO DGV A1201      -9.380  30.394  -6.456  1.00  0.00     0.130 HD
HETATM   21  O   DGV A1201     -10.967  27.734  -5.845  1.00  0.00    -0.278 OA
BRANCH  19  22
HETATM   22  CA  DGV A1201      -9.339  27.427  -7.464  1.00  0.00     0.140 C
HETATM   23  CB  DGV A1201      -9.485  27.996  -8.859  1.00  0.00     0.029 C
HETATM   24  CG  DGV A1201      -8.121  27.723  -9.546  1.00  0.00     0.017 C
HETATM   25  CD  DGV A1201      -7.213  27.127  -8.411  1.00  0.00     0.085 C
HETATM   26  N   DGV A1201      -7.923  27.421  -7.193  1.00  0.00    -0.288 NA
BRANCH  26  27
HETATM   27  CAG DGV A1201      -7.477  28.651  -6.601  1.00  0.00     0.120 C
BRANCH  27  28
HETATM   28  CAF DGV A1201      -7.239  28.726  -5.085  1.00  0.00    -0.033 A
HETATM   29  CAE DGV A1201      -7.295  27.657  -4.334  1.00  0.00     0.005 A
HETATM   30  CAD DGV A1201      -7.041  27.785  -2.824  1.00  0.00     0.000 A
HETATM   31  CAA DGV A1201      -6.771  28.951  -2.299  1.00  0.00     0.000 A
HETATM   32  CAB DGV A1201      -6.704  30.194  -3.185  1.00  0.00     0.000 A
HETATM   33  CAC DGV A1201      -6.919  30.091  -4.481  1.00  0.00     0.005 A
ENDBRANCH  27  28
ENDBRANCH  26  27
ENDBRANCH  19  22
ENDBRANCH  17  18
ENDBRANCH  16  17
ENDBRANCH  15  16
ENDBRANCH  12  15
ENDBRANCH   3   9
TORSDOF 8
