REMARK 10 active torsions:
REMARK  status: ('A' for Active; 'I' for Inactive)
REMARK    1  A    between atoms: C1_1  and  C23_8
REMARK    2  A    between atoms: C23_8  and  C27_11
REMARK    3  A    between atoms: C27_11  and  O29_12
REMARK    4  A    between atoms: C3_5  and  O17_36
REMARK    5  A    between atoms: C27_11  and  C48_22
REMARK    6  A    between atoms: O29_12  and  C30_13
REMARK    7  A    between atoms: C48_22  and  O51_23
REMARK    8  A    between atoms: O51_23  and  C55_24
REMARK    9  A    between atoms: C5_4  and  O18_38
REMARK   10  A    between atoms: C52_26  and  C62_30
ROOT
HETATM    1  C1  ON3 A2000      -0.867 -25.698  49.741  1.00  0.00    -0.012 A
HETATM    2  C2  ON3 A2000      -1.404 -26.000  48.473  1.00  0.00     0.039 A
HETATM    3  C4  ON3 A2000       0.251 -24.481  47.390  1.00  0.00     0.009 A
HETATM    4  C5  ON3 A2000       0.781 -24.212  48.705  1.00  0.00     0.081 A
HETATM    5  C3  ON3 A2000      -0.854 -25.392  47.311  1.00  0.00     0.081 A
HETATM    6  C6  ON3 A2000       0.212 -24.811  49.858  1.00  0.00     0.039 A
HETATM    7  C9  ON3 A2000       0.782 -23.847  46.135  1.00  0.00     0.049 C
ENDROOT
BRANCH   1   8
HETATM    8  C23 ON3 A2000      -1.509 -26.392  50.932  1.00  0.00     0.176 C
HETATM    9  O25 ON3 A2000      -0.558 -26.746  51.902  1.00  0.00    -0.385 OA
HETATM   10  H25 ON3 A2000      -0.959 -27.180  52.646  1.00  0.00     0.210 HD
BRANCH   8  11
HETATM   11  C27 ON3 A2000      -2.683 -25.607  51.626  1.00  0.00     0.178 C
BRANCH  11  12
HETATM   12  O29 ON3 A2000      -3.566 -25.022  50.680  1.00  0.00    -0.368 OA
BRANCH  12  13
HETATM   13  C30 ON3 A2000      -3.888 -23.640  50.738  1.00  0.00     0.127 C
HETATM   14  C31 ON3 A2000      -5.168 -23.486  49.857  1.00  0.00     0.067 C
HETATM   15  C43 ON3 A2000      -5.211 -23.240  47.259  1.00  0.00     0.004 A
HETATM   16  C42 ON3 A2000      -4.460 -22.858  46.115  1.00  0.00     0.000 A
HETATM   17  C40 ON3 A2000      -2.525 -22.310  47.518  1.00  0.00     0.004 A
HETATM   18  C38 ON3 A2000      -4.603 -23.150  48.516  1.00  0.00    -0.042 A
HETATM   19  C41 ON3 A2000      -3.137 -22.399  46.246  1.00  0.00     0.000 A
HETATM   20  C32 ON3 A2000      -2.837 -22.700  50.059  1.00  0.00     0.067 C
HETATM   21  C39 ON3 A2000      -3.269 -22.690  48.639  1.00  0.00    -0.042 A
ENDBRANCH  12  13
ENDBRANCH  11  12
BRANCH  11  22
HETATM   22  C48 ON3 A2000      -3.394 -26.452  52.730  1.00  0.00     0.202 C
BRANCH  22  23
HETATM   23  O51 ON3 A2000      -4.803 -26.340  52.682  1.00  0.00    -0.342 OA
BRANCH  23  24
HETATM   24  C55 ON3 A2000      -5.563 -27.468  52.360  1.00  0.00     0.076 A
HETATM   25  C54 ON3 A2000      -6.875 -27.156  51.939  1.00  0.00     0.033 A
HETATM   26  C52 ON3 A2000      -7.369 -29.555  51.690  1.00  0.00    -0.031 A
HETATM   27  C57 ON3 A2000      -6.041 -29.851  52.111  1.00  0.00     0.007 A
HETATM   28  C53 ON3 A2000      -7.763 -28.198  51.614  1.00  0.00     0.007 A
HETATM   29  C56 ON3 A2000      -5.139 -28.827  52.446  1.00  0.00     0.033 A
BRANCH  26  30
HETATM   30  C62 ON3 A2000      -8.319 -30.653  51.365  1.00  0.00     0.081 C
HETATM   31  C69 ON3 A2000      -9.237 -31.026  52.572  1.00  0.00     0.187 C
HETATM   32  C64 ON3 A2000      -7.885 -31.797  50.449  1.00  0.00     0.024 C
HETATM   33  O70 ON3 A2000     -10.476 -31.098  52.370  1.00  0.00    -0.647 OA
HETATM   34  O71 ON3 A2000      -8.671 -31.227  53.673  1.00  0.00    -0.647 OA
HETATM   35  C63 ON3 A2000      -8.926 -30.818  49.972  1.00  0.00     0.024 C
ENDBRANCH  26  30
ENDBRANCH  23  24
ENDBRANCH  22  23
ENDBRANCH  11  22
ENDBRANCH   8  11
ENDBRANCH   1   8
BRANCH   5  36
HETATM   36  O17 ON3 A2000      -1.377 -25.678  46.033  1.00  0.00    -0.348 OA
HETATM   37  C13 ON3 A2000      -2.745 -26.058  45.943  1.00  0.00     0.202 C
ENDBRANCH   5  36
BRANCH   4  38
HETATM   38  O18 ON3 A2000       1.863 -23.357  48.762  1.00  0.00    -0.348 OA
HETATM   39  C19 ON3 A2000       3.152 -23.882  49.055  1.00  0.00     0.202 C
ENDBRANCH   4  38
TORSDOF 10
