MODEL        1
REMARK THIS MODEL IS IDENTICAL TO THE INPUT LIGAND AND NOT FROM DOCKING
REMARK 921   NORMALIZED FREE ENERGY PREDICTED BY IDOCK:  -10.18 KCAL/MOL
REMARK 922        TOTAL FREE ENERGY PREDICTED BY IDOCK:  -13.00 KCAL/MOL
REMARK 923 INTER-LIGAND FREE ENERGY PREDICTED BY IDOCK:  -12.56 KCAL/MOL
REMARK 924 INTRA-LIGAND FREE ENERGY PREDICTED BY IDOCK:   -0.44 KCAL/MOL
REMARK 927      BINDING AFFINITY PREDICTED BY RF-SCORE:    0.00 PKD
ROOT
HETATM    1 CL1  VIS A1202       0.427  56.081 -42.310  1.00  0.00    -0.704 Cl 
HETATM    2  C11 VIS A1202       1.751  55.965 -41.197  1.00  0.00    -0.393 A  
HETATM    3  C10 VIS A1202       1.489  56.131 -39.845  1.00  0.00    -0.689 A  
HETATM    4  C9  VIS A1202       2.520  56.047 -38.925  1.00  0.00    -0.544 A  
HETATM    5  C8  VIS A1202       3.822  55.801 -39.353  1.00  0.00    -0.469 A  
HETATM    6  C12 VIS A1202       3.053  55.703 -41.653  1.00  0.00    -0.534 A  
HETATM    7  C13 VIS A1202       4.078  55.623 -40.709  1.00  0.00    -0.346 A  
ENDROOT
BRANCH   5   8
HETATM    8  N   VIS A1202       4.896  55.809 -38.434  1.00  0.00    -0.557 N  
HETATM    9  H   VIS A1202       4.968  55.008 -37.806  1.00  0.00     0.000 HD 
HETATM   10  C7  VIS A1202       5.839  56.772 -38.303  1.00  0.00    -0.356 C  
HETATM   11  O2  VIS A1202       5.918  57.741 -39.053  1.00  0.00    -0.377 OA 
BRANCH  10  12
HETATM   12  C4  VIS A1202       6.769  56.621 -37.138  1.00  0.00    -0.466 A  
HETATM   13 CL   VIS A1202       8.859  57.513 -38.655  1.00  0.00    -0.076 Cl 
HETATM   14  C3  VIS A1202       6.249  56.171 -35.921  1.00  0.00    -0.529 A  
HETATM   15  C5  VIS A1202       8.118  56.977 -37.181  1.00  0.00    -0.408 A  
HETATM   16  C2  VIS A1202       7.037  56.102 -34.786  1.00  0.00    -0.420 A  
HETATM   17  C6  VIS A1202       8.920  56.916 -36.057  1.00  0.00    -0.569 A  
HETATM   18  C1  VIS A1202       8.367  56.489 -34.860  1.00  0.00    -0.385 A  
BRANCH  18  19
HETATM   19  S   VIS A1202       9.364  56.487 -33.401  1.00  0.00    -0.369 S  
HETATM   20  O1  VIS A1202      10.705  56.834 -33.774  1.00  0.00    -0.401 OA 
HETATM   21  C   VIS A1202       8.708  57.782 -32.422  1.00  0.00    -0.523 C  
HETATM   22  O   VIS A1202       9.154  55.245 -32.715  1.00  0.00    -0.326 OA 
ENDBRANCH  18  19
ENDBRANCH  10  12
ENDBRANCH   5   8
BRANCH   6  23
HETATM   23  C14 VIS A1202       3.360  55.504 -43.094  1.00  0.00    -0.451 A  
HETATM   24  C16 VIS A1202       3.678  56.318 -45.317  1.00  0.00    -0.612 A  
HETATM   25  C17 VIS A1202       4.053  55.050 -45.703  1.00  0.00    -0.566 A  
HETATM   26  C18 VIS A1202       4.060  54.055 -44.743  1.00  0.00    -0.375 A  
HETATM   27  C15 VIS A1202       3.326  56.560 -44.001  1.00  0.00    -0.455 A  
HETATM   28  N1  VIS A1202       3.719  54.257 -43.459  1.00  0.00    -0.661 NA 
ENDBRANCH   6  23
TORSDOF 4
ENDMDL
