REMARK  7 active torsions:
REMARK  status: ('A' for Active; 'I' for Inactive)
REMARK    1  A    between atoms: C7_8  and  C8_11
REMARK    2  A    between atoms: C8_11  and  S2_12
REMARK    3  A    between atoms: S2_12  and  C9_13
REMARK    4  A    between atoms: C9_13  and  N4_14
REMARK    5  A    between atoms: C9_13  and  N3_22
REMARK    6  A    between atoms: N3_22  and  C10_24
REMARK    7  A    between atoms: N4_14  and  C16_16
ROOT
HETATM    1  C1  ITD A1500      15.447   3.740  25.057  1.00  0.00     0.041 C
HETATM    2  C2  ITD A1500      16.639   4.411  25.718  1.00  0.00     0.087 C
HETATM    3  N1  ITD A1500      17.820   3.574  25.506  1.00  0.00    -0.254 NA
HETATM    4  C3  ITD A1500      16.876   5.824  25.211  1.00  0.00     0.041 C
HETATM    5  C4  ITD A1500      18.395   3.354  26.693  1.00  0.00     0.152 C
HETATM    6  N2  ITD A1500      17.674   3.862  27.649  1.00  0.00    -0.204 NA
HETATM    7  C6  ITD A1500      16.447   4.519  27.227  1.00  0.00     0.070 C
HETATM    8  C7  ITD A1500      18.219   3.670  28.867  1.00  0.00     0.023 C
HETATM    9  S1  ITD A1500      19.844   2.575  27.206  1.00  0.00    -0.064 SA
HETATM   10  C5  ITD A1500      19.450   2.964  28.852  1.00  0.00     0.065 C
ENDROOT
BRANCH   8  11
HETATM   11  C8  ITD A1500      17.526   4.196  30.094  1.00  0.00     0.124 C
BRANCH  11  12
HETATM   12  S2  ITD A1500      18.064   5.878  30.162  1.00  0.00    -0.096 SA
BRANCH  12  13
HETATM   13  C9  ITD A1500      19.662   5.871  30.576  1.00  0.00     0.095 C
BRANCH  13  14
HETATM   14  N4  ITD A1500      20.659   6.519  29.921  1.00  0.00    -0.270 NA
HETATM   15  H4  ITD A1500      21.506   6.622  30.479  1.00  0.00     0.129 HD
BRANCH  14  16
HETATM   16  C16 ITD A1500      20.776   7.108  28.566  1.00  0.00     0.060 C
HETATM   17  C19 ITD A1500      20.008   8.796  26.205  1.00  0.00     0.000 C
HETATM   18  C20 ITD A1500      21.045   9.287  27.212  1.00  0.00     0.002 C
HETATM   19  C17 ITD A1500      19.982   6.479  27.402  1.00  0.00     0.019 C
HETATM   20  C21 ITD A1500      20.800   8.647  28.581  1.00  0.00     0.019 C
HETATM   21  C18 ITD A1500      20.020   7.267  26.077  1.00  0.00     0.002 C
ENDBRANCH  14  16
ENDBRANCH  13  14
BRANCH  13  22
HETATM   22  N3  ITD A1500      19.839   5.122  31.662  1.00  0.00    -0.270 NA
HETATM   23  H3  ITD A1500      18.983   4.711  32.036  1.00  0.00     0.129 HD
BRANCH  22  24
HETATM   24  C10 ITD A1500      21.020   4.795  32.393  1.00  0.00     0.060 C
HETATM   25  C15 ITD A1500      21.982   3.911  31.588  1.00  0.00     0.019 C
HETATM   26  C11 ITD A1500      21.678   6.025  33.010  1.00  0.00     0.019 C
HETATM   27  C14 ITD A1500      23.134   3.456  32.484  1.00  0.00     0.002 C
HETATM   28  C13 ITD A1500      23.839   4.666  33.105  1.00  0.00     0.000 C
HETATM   29  C12 ITD A1500      22.882   5.605  33.866  1.00  0.00     0.002 C
ENDBRANCH  22  24
ENDBRANCH  13  22
ENDBRANCH  12  13
ENDBRANCH  11  12
ENDBRANCH   8  11
TORSDOF 7
