REMARK  7 active torsions:
REMARK  status: ('A' for Active; 'I' for Inactive)
REMARK    1  A    between atoms: C13_6  and  C12_9
REMARK    2  A    between atoms: C12_9  and  C11_10
REMARK    3  A    between atoms: C11_10  and  C9_11
REMARK    4  A    between atoms: C9_11  and  N1_13
REMARK    5  A    between atoms: N1_13  and  C8_15
REMARK    6  A    between atoms: C8_15  and  C1_16
REMARK    7  A    between atoms: C1_16  and  C2_17
ROOT
HETATM    1  O3  Y00 A 601     -33.766 -16.835  25.314  1.00  0.00    -0.360 OA
HETATM    2  C16 Y00 A 601     -32.466 -16.457  25.226  1.00  0.00     0.073 A
HETATM    3  H3  Y00 A 601     -34.406 -16.423  24.746  1.00  0.00     0.217 HD
HETATM    4  C15 Y00 A 601     -31.525 -17.063  26.061  1.00  0.00     0.033 A
HETATM    5  C14 Y00 A 601     -30.186 -16.685  25.985  1.00  0.00     0.006 A
HETATM    6  C13 Y00 A 601     -29.788 -15.700  25.067  1.00  0.00    -0.047 A
HETATM    7  C18 Y00 A 601     -30.737 -15.088  24.229  1.00  0.00     0.006 A
HETATM    8  C17 Y00 A 601     -32.084 -15.473  24.307  1.00  0.00     0.033 A
ENDROOT
BRANCH   6   9
HETATM    9  C12 Y00 A 601     -28.330 -15.285  24.983  1.00  0.00     0.036 C
BRANCH   9  10
HETATM   10  C11 Y00 A 601     -27.419 -16.487  25.155  1.00  0.00     0.023 C
BRANCH  10  11
HETATM   11  C9  Y00 A 601     -25.980 -16.253  24.708  1.00  0.00     0.051 C
HETATM   12  C10 Y00 A 601     -25.793 -16.826  23.303  1.00  0.00     0.024 C
BRANCH  11  13
HETATM   13  N1  Y00 A 601     -25.536 -14.869  24.825  1.00  0.00    -0.313 NA
HETATM   14  H1  Y00 A 601     -26.209 -14.105  24.758  1.00  0.00     0.122 HD
BRANCH  13  15
HETATM   15  C8  Y00 A 601     -24.116 -14.586  25.040  1.00  0.00     0.086 C
BRANCH  15  16
HETATM   16  C1  Y00 A 601     -23.887 -13.091  25.282  1.00  0.00     0.050 C
BRANCH  16  17
HETATM   17  C2  Y00 A 601     -22.448 -12.663  25.514  1.00  0.00    -0.044 A
HETATM   18  C7  Y00 A 601     -21.786 -13.028  26.686  1.00  0.00     0.038 A
HETATM   19  C6  Y00 A 601     -20.467 -12.622  26.918  1.00  0.00     0.102 A
HETATM   20  C5  Y00 A 601     -19.785 -11.790  25.904  1.00  0.00     0.102 A
HETATM   21  O1  Y00 A 601     -19.803 -12.981  28.061  1.00  0.00    -0.357 OA
HETATM   22  H1  Y00 A 601     -18.908 -12.705  28.218  1.00  0.00     0.217 HD
HETATM   23  O2  Y00 A 601     -18.493 -11.395  26.121  1.00  0.00    -0.357 OA
HETATM   24  C4  Y00 A 601     -20.478 -11.432  24.749  1.00  0.00     0.035 A
HETATM   25  H2  Y00 A 601     -18.055 -10.860  25.469  1.00  0.00     0.217 HD
HETATM   26  C3  Y00 A 601     -21.796 -11.865  24.568  1.00  0.00     0.006 A
ENDBRANCH  16  17
ENDBRANCH  15  16
ENDBRANCH  13  15
ENDBRANCH  11  13
ENDBRANCH  10  11
ENDBRANCH   9  10
ENDBRANCH   6   9
TORSDOF 7
