MODEL        1
REMARK THIS MODEL IS IDENTICAL TO THE INPUT LIGAND AND NOT FROM DOCKING
REMARK 921   NORMALIZED FREE ENERGY PREDICTED BY IDOCK:   -2.04 KCAL/MOL
REMARK 922        TOTAL FREE ENERGY PREDICTED BY IDOCK:   -2.76 KCAL/MOL
REMARK 923 INTER-LIGAND FREE ENERGY PREDICTED BY IDOCK:   -2.51 KCAL/MOL
REMARK 924 INTRA-LIGAND FREE ENERGY PREDICTED BY IDOCK:   -0.25 KCAL/MOL
REMARK 927      BINDING AFFINITY PREDICTED BY RF-SCORE:    0.00 PKD
ROOT
HETATM    1  C1  RET A 401       7.363  45.739  34.106  1.00  0.00    -0.492 C  
HETATM    2  C2  RET A 401       6.161  46.472  34.735  1.00  0.00    -0.740 C  
HETATM    3  C17 RET A 401       7.632  44.483  34.965  1.00  0.00    -0.507 C  
HETATM    4  C16 RET A 401       6.975  45.284  32.701  1.00  0.00    -0.682 C  
HETATM    5  C3  RET A 401       5.816  47.739  33.947  1.00  0.00    -0.841 C  
HETATM    6  C4  RET A 401       7.027  48.664  33.866  1.00  0.00    -0.468 C  
HETATM    7  C5  RET A 401       8.382  48.018  33.797  1.00  0.00    -0.557 C  
HETATM    8  C6  RET A 401       8.571  46.699  33.975  1.00  0.00    -0.534 C  
HETATM    9  C18 RET A 401       9.564  48.907  33.586  1.00  0.00    -0.704 C  
ENDROOT
BRANCH   8  10
HETATM   10  C7  RET A 401       9.956  46.174  33.853  1.00  0.00    -0.351 C  
HETATM   11  C8  RET A 401      10.970  46.525  34.651  1.00  0.00    -0.544 C  
BRANCH  11  12
HETATM   12  C9  RET A 401      12.001  45.509  35.045  1.00  0.00    -0.535 C  
HETATM   13  C19 RET A 401      11.981  44.069  34.528  1.00  0.00    -0.446 C  
HETATM   14  C10 RET A 401      12.992  45.889  35.881  1.00  0.00    -0.573 C  
BRANCH  14  15
HETATM   15  C11 RET A 401      13.958  44.917  36.346  1.00  0.00    -0.509 C  
HETATM   16  C12 RET A 401      15.020  45.343  37.004  1.00  0.00    -0.421 C  
BRANCH  16  17
HETATM   17  C13 RET A 401      15.820  44.411  37.862  1.00  0.00    -0.430 C  
HETATM   18  C14 RET A 401      16.814  44.888  38.632  1.00  0.00     0.876 C  
HETATM   19  C20 RET A 401      15.441  42.963  38.033  1.00  0.00    -0.460 C  
HETATM   20  C15 RET A 401      17.318  44.069  39.720  1.00  0.00     6.403 C  
ENDBRANCH  16  17
ENDBRANCH  14  15
ENDBRANCH  11  12
ENDBRANCH   8  10
TORSDOF 4
ENDMDL
