REMARK  9 active torsions:
REMARK  status: ('A' for Active; 'I' for Inactive)
REMARK    1  A    between atoms: C1_1  and  O1_13
REMARK    2  A    between atoms: O1_13  and  C1'_14
REMARK    3  A    between atoms: C1'_14  and  C2'_15
REMARK    4  A    between atoms: C2'_15  and  C3'_16
REMARK    5  A    between atoms: C5_10  and  C6_22
REMARK    6  A    between atoms: C3'_16  and  C4'_17
REMARK    7  A    between atoms: C4'_17  and  C5'_18
REMARK    8  A    between atoms: C5'_18  and  C6'_19
REMARK    9  A    between atoms: C6'_19  and  C7'_20
ROOT
HETATM    1  C1  BOG A 406     134.420 255.761  35.753  1.00  0.00     0.282 C
HETATM    2  C2  BOG A 406     134.526 254.477  34.954  1.00  0.00     0.201 C
HETATM    3  O5  BOG A 406     135.665 255.946  36.407  1.00  0.00    -0.341 OA
HETATM    4  C3  BOG A 406     134.731 253.336  35.922  1.00  0.00     0.179 C
HETATM    5  O2  BOG A 406     133.341 254.262  34.196  1.00  0.00    -0.384 OA
HETATM    6  H4  BOG A 406     136.888 252.743  38.237  1.00  0.00     0.210 HD
HETATM    7  H2  BOG A 406     133.407 253.457  33.695  1.00  0.00     0.210 HD
HETATM    8  O3  BOG A 406     134.901 252.130  35.198  1.00  0.00    -0.386 OA
HETATM    9  C4  BOG A 406     135.984 253.586  36.729  1.00  0.00     0.177 C
HETATM   10  C5  BOG A 406     135.949 254.951  37.380  1.00  0.00     0.178 C
HETATM   11  H3  BOG A 406     135.030 251.412  35.807  1.00  0.00     0.210 HD
HETATM   12  O4  BOG A 406     136.100 252.586  37.730  1.00  0.00    -0.386 OA
ENDROOT
BRANCH   1  13
HETATM   13  O1  BOG A 406     134.207 256.846  34.878  1.00  0.00    -0.349 OA
BRANCH  13  14
HETATM   14  C1' BOG A 406     133.736 257.980  35.574  1.00  0.00     0.163 C
BRANCH  14  15
HETATM   15  C2' BOG A 406     132.258 258.134  35.278  1.00  0.00     0.028 C
BRANCH  15  16
HETATM   16  C3' BOG A 406     132.009 258.218  33.787  1.00  0.00     0.002 C
BRANCH  16  17
HETATM   17  C4' BOG A 406     130.862 259.173  33.513  1.00  0.00     0.000 C
BRANCH  17  18
HETATM   18  C5' BOG A 406     129.589 258.427  33.155  1.00  0.00    -0.000 C
BRANCH  18  19
HETATM   19  C6' BOG A 406     128.438 258.836  34.060  1.00  0.00    -0.000 C
BRANCH  19  20
HETATM   20  C7' BOG A 406     127.341 257.786  34.086  1.00  0.00    -0.003 C
HETATM   21  C8' BOG A 406     127.895 256.389  34.214  1.00  0.00     0.004 C
ENDBRANCH  19  20
ENDBRANCH  18  19
ENDBRANCH  17  18
ENDBRANCH  16  17
ENDBRANCH  15  16
ENDBRANCH  14  15
ENDBRANCH  13  14
ENDBRANCH   1  13
BRANCH  10  22
HETATM   22  C6  BOG A 406     137.322 255.258  37.915  1.00  0.00     0.190 C
HETATM   23  H6  BOG A 406     138.973 255.971  37.185  1.00  0.00     0.210 HD
HETATM   24  O6  BOG A 406     138.106 255.777  36.847  1.00  0.00    -0.392 OA
ENDBRANCH  10  22
TORSDOF 9
