MODEL        1
REMARK THIS MODEL IS IDENTICAL TO THE INPUT LIGAND AND NOT FROM DOCKING
REMARK 921   NORMALIZED FREE ENERGY PREDICTED BY IDOCK:   -6.25 KCAL/MOL
REMARK 922        TOTAL FREE ENERGY PREDICTED BY IDOCK:   -9.51 KCAL/MOL
REMARK 923 INTER-LIGAND FREE ENERGY PREDICTED BY IDOCK:   -9.17 KCAL/MOL
REMARK 924 INTRA-LIGAND FREE ENERGY PREDICTED BY IDOCK:   -0.34 KCAL/MOL
REMARK 927      BINDING AFFINITY PREDICTED BY RF-SCORE:    0.00 PKD
ROOT
HETATM    1  C1  JTZ A1203      -0.937   7.982 -53.709  1.00  0.00    -0.740 C  
HETATM    2  C2  JTZ A1203      -2.462   7.882 -53.750  1.00  0.00    -0.402 C  
HETATM    3  C3  JTZ A1203      -3.070   9.067 -54.494  1.00  0.00    -0.600 C  
ENDROOT
BRANCH   2   4
HETATM    4  N1  JTZ A1203      -3.024   7.839 -52.383  1.00  0.00    -0.756 NA 
HETATM    5  H1  JTZ A1203      -4.042   7.903 -52.391  1.00  0.00     0.000 HD 
BRANCH   4   6
HETATM    6  C4  JTZ A1203      -2.560   6.643 -51.666  1.00  0.00    -0.323 C  
BRANCH   6   7
HETATM    7  C5  JTZ A1203      -3.282   6.531 -50.334  1.00  0.00    -0.545 C  
HETATM    8  H1  JTZ A1203      -3.767   7.732 -48.843  1.00  0.00     0.000 HD 
HETATM    9  O1  JTZ A1203      -3.315   7.802 -49.676  1.00  0.00     0.288 OA 
BRANCH   7  10
HETATM   10  C6  JTZ A1203      -2.536   5.516 -49.491  1.00  0.00    -0.465 C  
BRANCH  10  11
HETATM   11  O2  JTZ A1203      -2.670   4.232 -50.097  1.00  0.00    -0.388 OA 
BRANCH  11  12
HETATM   12  C7  JTZ A1203      -1.926   3.151 -49.691  1.00  0.00    -0.457 A  
HETATM   13  C8  JTZ A1203      -1.079   3.255 -48.589  1.00  0.00    -0.859 A  
HETATM   14  C9  JTZ A1203      -0.326   2.163 -48.180  1.00  0.00    -0.812 A  
HETATM   15  C10 JTZ A1203      -0.415   0.959 -48.865  1.00  0.00    -0.569 A  
HETATM   16  C11 JTZ A1203      -1.258   0.846 -49.957  1.00  0.00    -0.534 A  
HETATM   17  C12 JTZ A1203      -2.015   1.940 -50.372  1.00  0.00    -0.614 A  
BRANCH  17  18
HETATM   18  C13 JTZ A1203      -2.928   1.785 -51.566  1.00  0.00    -0.663 C  
BRANCH  18  19
HETATM   19  C14 JTZ A1203      -2.141   1.203 -52.710  1.00  0.00    -0.488 C  
HETATM   20  C15 JTZ A1203      -2.227  -0.082 -52.996  1.00  0.00    -0.248 C  
ENDBRANCH  18  19
ENDBRANCH  17  18
ENDBRANCH  11  12
ENDBRANCH  10  11
ENDBRANCH   7  10
ENDBRANCH   6   7
ENDBRANCH   4   6
ENDBRANCH   2   4
TORSDOF 8
ENDMDL
