REMARK  5 active torsions:
REMARK  status: ('A' for Active; 'I' for Inactive)
REMARK    1  A    between atoms: C1_1  and  C8_2
REMARK    2  A    between atoms: C1_1  and  C2_22
REMARK    3  A    between atoms: C11_8  and  C12_9
REMARK    4  A    between atoms: C5_26  and  C7_27
REMARK    5  A    between atoms: C28_11  and  C30_15
ROOT
HETATM    1  C1  4OT A2001      -9.883  -1.056 -53.995  1.00  0.00     0.103 C
ENDROOT
BRANCH   1   2
HETATM    2  C8  4OT A2001      -9.692   0.378 -53.498  1.00  0.00     0.073 C
HETATM    3  C24 4OT A2001     -10.865   0.899 -52.667  1.00  0.00     0.021 C
HETATM    4  C14 4OT A2001     -11.785   1.628 -53.679  1.00  0.00     0.017 C
HETATM    5  N12 4OT A2001      -9.655   1.334 -54.611  1.00  0.00    -0.236 N
HETATM    6  C13 4OT A2001     -11.015   1.730 -54.993  1.00  0.00     0.093 C
HETATM    7  O23 4OT A2001      -8.508   2.571 -56.089  1.00  0.00    -0.272 OA
HETATM    8  C11 4OT A2001      -8.512   1.823 -55.118  1.00  0.00     0.254 C
BRANCH   8   9
HETATM    9  C12 4OT A2001      -7.198   1.456 -54.509  1.00  0.00     0.137 A
HETATM   10  N27 4OT A2001      -6.263   0.669 -55.156  1.00  0.00    -0.239 NA
HETATM   11  C28 4OT A2001      -6.826   1.945 -53.280  1.00  0.00     0.054 A
HETATM   12  S29 4OT A2001      -5.217   1.394 -52.920  1.00  0.00    -0.071 SA
HETATM   13  C26 4OT A2001      -5.178   0.553 -54.443  1.00  0.00     0.077 A
HETATM   14  C25 4OT A2001      -3.983  -0.227 -54.884  1.00  0.00     0.073 C
BRANCH  11  15
HETATM   15  C30 4OT A2001      -7.538   2.793 -52.301  1.00  0.00     0.026 A
HETATM   16  C38 4OT A2001      -7.677   2.477 -50.958  1.00  0.00     0.132 A
HETATM   17  F39 4OT A2001      -7.138   1.324 -50.502  1.00  0.00    -0.205 F
HETATM   18  C37 4OT A2001      -8.341   3.278 -50.061  1.00  0.00     0.039 A
HETATM   19  C36 4OT A2001      -8.902   4.456 -50.519  1.00  0.00     0.003 A
HETATM   20  C35 4OT A2001      -8.790   4.809 -51.845  1.00  0.00     0.001 A
HETATM   21  C34 4OT A2001      -8.116   3.988 -52.731  1.00  0.00     0.012 A
ENDBRANCH  11  15
ENDBRANCH   8   9
ENDBRANCH   1   2
BRANCH   1  22
HETATM   22  C2  4OT A2001      -8.927  -1.398 -55.079  1.00  0.00     0.174 A
HETATM   23  O6  4OT A2001      -7.818  -2.100 -54.700  1.00  0.00    -0.272 OA
HETATM   24  N4  4OT A2001      -7.785  -1.729 -56.871  1.00  0.00    -0.121 NA
HETATM   25  N3  4OT A2001      -8.950  -1.159 -56.339  1.00  0.00    -0.126 NA
HETATM   26  C5  4OT A2001      -7.157  -2.265 -55.881  1.00  0.00     0.203 A
BRANCH  26  27
HETATM   27  C7  4OT A2001      -5.882  -2.982 -55.883  1.00  0.00     0.026 A
HETATM   28  C44 4OT A2001      -5.168  -3.157 -57.063  1.00  0.00     0.012 A
HETATM   29  C45 4OT A2001      -3.954  -3.822 -57.056  1.00  0.00     0.001 A
HETATM   30  C46 4OT A2001      -3.442  -4.321 -55.877  1.00  0.00     0.000 A
HETATM   31  C47 4OT A2001      -4.143  -4.157 -54.701  1.00  0.00     0.001 A
HETATM   32  C48 4OT A2001      -5.357  -3.493 -54.700  1.00  0.00     0.012 A
ENDBRANCH  26  27
ENDBRANCH   1  22
TORSDOF 5
