MODEL        1
REMARK THIS MODEL IS IDENTICAL TO THE INPUT LIGAND AND NOT FROM DOCKING
REMARK 921   NORMALIZED FREE ENERGY PREDICTED BY IDOCK:   -6.95 KCAL/MOL
REMARK 922        TOTAL FREE ENERGY PREDICTED BY IDOCK:  -12.66 KCAL/MOL
REMARK 923 INTER-LIGAND FREE ENERGY PREDICTED BY IDOCK:  -11.42 KCAL/MOL
REMARK 924 INTRA-LIGAND FREE ENERGY PREDICTED BY IDOCK:   -1.24 KCAL/MOL
REMARK 927      BINDING AFFINITY PREDICTED BY RF-SCORE:    0.00 PKD
ROOT
HETATM    1  C10 K86 A1201     -34.062   7.765  13.410  1.00  0.00    -0.463 A  
HETATM    2  C9  K86 A1201     -34.196   6.479  12.896  1.00  0.00    -0.455 A  
HETATM    3  C8  K86 A1201     -33.425   5.447  13.410  1.00  0.00    -0.206 A  
HETATM    4  C7  K86 A1201     -32.520   5.689  14.428  1.00  0.00    -0.176 A  
HETATM    5  C5  K86 A1201     -33.158   8.013  14.434  1.00  0.00    -0.326 A  
HETATM    6  C6  K86 A1201     -32.388   6.974  14.940  1.00  0.00    -0.202 A  
ENDROOT
BRANCH   3   7
HETATM    7  S11 K86 A1201     -33.588   3.755  12.747  1.00  0.00    -0.278 S  
HETATM    8  O12 K86 A1201     -34.885   3.172  13.095  1.00  0.00    -0.527 OA 
HETATM    9  O13 K86 A1201     -32.658   2.858  13.436  1.00  0.00    -0.429 OA 
BRANCH   7  10
HETATM   10  N14 K86 A1201     -33.343   3.750  11.051  1.00  0.00    -0.156 N  
HETATM   11  H14 K86 A1201     -34.075   3.422  10.422  1.00  0.00     0.000 HD 
BRANCH  10  12
HETATM   12  C15 K86 A1201     -32.068   4.224  10.524  1.00  0.00    -0.297 A  
HETATM   13  C16 K86 A1201     -31.724   4.027   9.193  1.00  0.00    -0.373 A  
HETATM   14  N20 K86 A1201     -31.240   4.834  11.344  1.00  0.00    -0.166 NA 
HETATM   15  N18 K86 A1201     -29.695   5.123   9.652  1.00  0.00    -0.245 NA 
HETATM   16  C17 K86 A1201     -30.483   4.516   8.773  1.00  0.00    -0.326 A  
HETATM   17  C19 K86 A1201     -30.080   5.275  10.906  1.00  0.00    -0.190 A  
BRANCH  13  18
HETATM   18  O31 K86 A1201     -32.618   3.382   8.331  1.00  0.00    -0.641 OA 
BRANCH  18  19
HETATM   19  C32 K86 A1201     -32.473   1.986   8.351  1.00  0.00    -0.204 A  
HETATM   20  C35 K86 A1201     -32.241  -0.786   8.341  1.00  0.00    -0.572 A  
HETATM   21  C37 K86 A1201     -33.387   1.209   7.661  1.00  0.00    -0.124 A  
HETATM   22  C36 K86 A1201     -33.270  -0.170   7.652  1.00  0.00    -0.375 A  
HETATM   23  C34 K86 A1201     -31.325  -0.011   9.032  1.00  0.00    -0.587 A  
HETATM   24  C33 K86 A1201     -31.442   1.371   9.040  1.00  0.00    -0.387 A  
BRANCH  21  25
HETATM   25  O38 K86 A1201     -34.434   1.825   6.975  1.00  0.00     0.063 OA 
HETATM   26  C39 K86 A1201     -34.196   2.012   5.617  1.00  0.00    -0.265 C  
ENDBRANCH  21  25
ENDBRANCH  18  19
ENDBRANCH  13  18
BRANCH  16  27
HETATM   27  O27 K86 A1201     -30.054   4.367   7.443  1.00  0.00    -0.419 OA 
BRANCH  27  28
HETATM   28  C28 K86 A1201     -29.857   5.583   6.771  1.00  0.00    -0.222 C  
BRANCH  28  29
HETATM   29  C29 K86 A1201     -28.368   5.933   6.794  1.00  0.00    -0.391 C  
HETATM   30  H30 K86 A1201     -27.325   7.542   6.703  1.00  0.00     0.000 HD 
HETATM   31  O30 K86 A1201     -28.249   7.325   6.689  1.00  0.00    -0.059 OA 
ENDBRANCH  28  29
ENDBRANCH  27  28
ENDBRANCH  16  27
BRANCH  17  32
HETATM   32  C21 K86 A1201     -29.176   5.971  11.921  1.00  0.00    -0.170 A  
HETATM   33  N22 K86 A1201     -29.113   5.477  13.144  1.00  0.00    -0.141 NA 
HETATM   34  N26 K86 A1201     -28.495   7.040  11.554  1.00  0.00    -0.177 NA 
HETATM   35  C23 K86 A1201     -28.351   6.035  14.068  1.00  0.00    -0.147 A  
HETATM   36  C25 K86 A1201     -27.710   7.656  12.420  1.00  0.00    -0.145 A  
HETATM   37  C24 K86 A1201     -27.618   7.160  13.715  1.00  0.00    -0.222 A  
ENDBRANCH  17  32
ENDBRANCH  10  12
ENDBRANCH   7  10
ENDBRANCH   3   7
BRANCH   5  38
HETATM   38  C2  K86 A1201     -32.997   9.432  15.012  1.00  0.00    -0.295 C  
HETATM   39  C3  K86 A1201     -34.057  10.371  14.436  1.00  0.00    -0.517 C  
HETATM   40  C4  K86 A1201     -33.130   9.398  16.533  1.00  0.00    -0.313 C  
HETATM   41  C1  K86 A1201     -31.617   9.968  14.644  1.00  0.00    -0.293 C  
ENDBRANCH   5  38
TORSDOF 11
ENDMDL
