REMARK  7 active torsions:
REMARK  status: ('A' for Active; 'I' for Inactive)
REMARK    1  A    between atoms: C13_6  and  C12_9
REMARK    2  A    between atoms: C12_9  and  C11_10
REMARK    3  A    between atoms: C11_10  and  C9_11
REMARK    4  A    between atoms: C9_11  and  N1_13
REMARK    5  A    between atoms: N1_13  and  C8_15
REMARK    6  A    between atoms: C8_15  and  C1_16
REMARK    7  A    between atoms: C1_16  and  C2_17
ROOT
HETATM    1  O3  Y00 A 406     -42.022  25.883  -2.861  1.00  0.00    -0.360 OA
HETATM    2  C16 Y00 A 406     -42.235  26.108  -4.177  1.00  0.00     0.073 A
HETATM    3  H3  Y00 A 406     -41.144  25.952  -2.506  1.00  0.00     0.217 HD
HETATM    4  C15 Y00 A 406     -43.526  26.006  -4.699  1.00  0.00     0.033 A
HETATM    5  C14 Y00 A 406     -43.746  26.232  -6.056  1.00  0.00     0.006 A
HETATM    6  C13 Y00 A 406     -42.670  26.554  -6.884  1.00  0.00    -0.047 A
HETATM    7  C18 Y00 A 406     -41.374  26.647  -6.349  1.00  0.00     0.006 A
HETATM    8  C17 Y00 A 406     -41.161  26.438  -4.992  1.00  0.00     0.033 A
ENDROOT
BRANCH   6   9
HETATM    9  C12 Y00 A 406     -42.911  26.793  -8.358  1.00  0.00     0.036 C
BRANCH   9  10
HETATM   10  C11 Y00 A 406     -42.843  28.293  -8.624  1.00  0.00     0.023 C
BRANCH  10  11
HETATM   11  C9  Y00 A 406     -42.899  28.626 -10.114  1.00  0.00     0.051 C
HETATM   12  C10 Y00 A 406     -43.094  30.135 -10.266  1.00  0.00     0.024 C
BRANCH  11  13
HETATM   13  N1  Y00 A 406     -41.711  28.151 -10.823  1.00  0.00    -0.313 NA
HETATM   14  H1  Y00 A 406     -40.867  27.922 -10.298  1.00  0.00     0.122 HD
BRANCH  13  15
HETATM   15  C8  Y00 A 406     -41.723  28.003 -12.267  1.00  0.00     0.086 C
BRANCH  15  16
HETATM   16  C1  Y00 A 406     -40.382  27.611 -12.879  1.00  0.00     0.050 C
BRANCH  16  17
HETATM   17  C2  Y00 A 406     -40.397  27.866 -14.381  1.00  0.00    -0.044 A
HETATM   18  C7  Y00 A 406     -41.426  27.342 -15.191  1.00  0.00     0.038 A
HETATM   19  C6  Y00 A 406     -41.444  27.581 -16.564  1.00  0.00     0.102 A
HETATM   20  C5  Y00 A 406     -40.357  28.396 -17.156  1.00  0.00     0.102 A
HETATM   21  O1  Y00 A 406     -42.434  27.079 -17.356  1.00  0.00    -0.357 OA
HETATM   22  H1  Y00 A 406     -42.446  27.242 -18.292  1.00  0.00     0.217 HD
HETATM   23  O2  Y00 A 406     -40.356  28.644 -18.492  1.00  0.00    -0.357 OA
HETATM   24  C4  Y00 A 406     -39.361  28.900 -16.325  1.00  0.00     0.035 A
HETATM   25  H2  Y00 A 406     -39.659  29.166 -18.872  1.00  0.00     0.217 HD
HETATM   26  C3  Y00 A 406     -39.378  28.634 -14.956  1.00  0.00     0.006 A
ENDBRANCH  16  17
ENDBRANCH  15  16
ENDBRANCH  13  15
ENDBRANCH  11  13
ENDBRANCH  10  11
ENDBRANCH   9  10
ENDBRANCH   6   9
TORSDOF 7
