MODEL        1
REMARK THIS MODEL IS IDENTICAL TO THE INPUT LIGAND AND NOT FROM DOCKING
REMARK 921   NORMALIZED FREE ENERGY PREDICTED BY IDOCK:   -8.58 KCAL/MOL
REMARK 922        TOTAL FREE ENERGY PREDICTED BY IDOCK:  -12.07 KCAL/MOL
REMARK 923 INTER-LIGAND FREE ENERGY PREDICTED BY IDOCK:  -11.59 KCAL/MOL
REMARK 924 INTRA-LIGAND FREE ENERGY PREDICTED BY IDOCK:   -0.48 KCAL/MOL
REMARK 927      BINDING AFFINITY PREDICTED BY RF-SCORE:    0.00 PKD
ROOT
HETATM    1  O2  P32 A1361     -23.927   4.453  18.022  1.00  0.00    -0.798 OA 
HETATM    2  H2  P32 A1361     -24.517   3.708  18.024  1.00  0.00     0.000 HD 
HETATM    3  C10 P32 A1361     -24.110   5.308  16.851  1.00  0.00    -0.536 C  
ENDROOT
BRANCH   3   4
HETATM    4  C11 P32 A1361     -23.180   6.482  16.848  1.00  0.00    -0.182 C  
BRANCH   4   5
HETATM    5  N2  P32 A1361     -23.264   7.188  18.130  1.00  0.00    -0.661 NA 
HETATM    6  C15 P32 A1361     -21.478   8.819  17.250  1.00  0.00    -0.652 C  
HETATM    7  H2  P32 A1361     -22.763   6.681  18.860  1.00  0.00     0.000 HD 
HETATM    8  C14 P32 A1361     -23.856   9.507  17.320  1.00  0.00    -0.579 C  
HETATM    9  C12 P32 A1361     -22.784   8.634  18.042  1.00  0.00    -0.351 C  
HETATM   10  C13 P32 A1361     -22.548   9.268  19.452  1.00  0.00    -0.570 C  
ENDBRANCH   4   5
ENDBRANCH   3   4
BRANCH   3  11
HETATM   11  C9  P32 A1361     -23.752   4.506  15.601  1.00  0.00    -0.432 C  
BRANCH  11  12
HETATM   12  O1  P32 A1361     -24.237   5.191  14.527  1.00  0.00    -0.345 OA 
BRANCH  12  13
HETATM   13  C4  P32 A1361     -23.846   4.761  13.267  1.00  0.00    -0.491 A  
HETATM   14  C5  P32 A1361     -23.365   3.509  13.003  1.00  0.00    -0.802 A  
HETATM   15  C6  P32 A1361     -22.986   3.135  11.711  1.00  0.00    -0.778 A  
HETATM   16  C7  P32 A1361     -23.167   4.078  10.687  1.00  0.00    -0.651 A  
HETATM   17  C8  P32 A1361     -23.644   5.302  10.971  1.00  0.00    -0.424 A  
HETATM   18  C3  P32 A1361     -23.977   5.641  12.254  1.00  0.00    -0.617 A  
HETATM   19  C2  P32 A1361     -24.453   6.886  12.216  1.00  0.00    -0.591 A  
HETATM   20  C1  P32 A1361     -24.370   7.312  10.935  1.00  0.00    -0.426 A  
HETATM   21  H1  P32 A1361     -23.612   6.436   9.201  1.00  0.00     0.000 HD 
HETATM   22  N1  P32 A1361     -23.837   6.367  10.193  1.00  0.00    -0.576 NA 
BRANCH  20  23
HETATM   23  C16 P32 A1361     -24.759   8.667  10.469  1.00  0.00    -0.399 C  
HETATM   24  N3  P32 A1361     -25.078   9.839  10.026  1.00  0.00    -0.732 NA 
HETATM   25  H32 P32 A1361     -24.609   9.653   9.140  1.00  0.00     0.000 HD 
HETATM   26  H31 P32 A1361     -25.345  10.770   9.706  1.00  0.00     0.000 HD 
ENDBRANCH  20  23
ENDBRANCH  12  13
ENDBRANCH  11  12
ENDBRANCH   3  11
TORSDOF 6
ENDMDL
