MODEL        1
REMARK THIS MODEL IS IDENTICAL TO THE INPUT LIGAND AND NOT FROM DOCKING
REMARK 921   NORMALIZED FREE ENERGY PREDICTED BY IDOCK:   -6.33 KCAL/MOL
REMARK 922        TOTAL FREE ENERGY PREDICTED BY IDOCK:   -8.43 KCAL/MOL
REMARK 923 INTER-LIGAND FREE ENERGY PREDICTED BY IDOCK:   -8.18 KCAL/MOL
REMARK 924 INTRA-LIGAND FREE ENERGY PREDICTED BY IDOCK:   -0.25 KCAL/MOL
REMARK 927      BINDING AFFINITY PREDICTED BY RF-SCORE:    0.00 PKD
ROOT
HETATM    1  C1  ZMA A1201      21.783 -13.679  15.960  1.00  0.00    -0.358 A  
HETATM    2  C2  ZMA A1201      21.360 -15.003  15.990  1.00  0.00    -0.347 A  
HETATM    3  C3  ZMA A1201      20.046 -15.320  15.666  1.00  0.00    -0.257 A  
HETATM    4  O4  ZMA A1201      19.632 -16.618  15.695  1.00  0.00    -0.199 OA 
HETATM    5  C5  ZMA A1201      19.155 -14.314  15.311  1.00  0.00    -0.323 A  
HETATM    6  C6  ZMA A1201      19.578 -12.990  15.282  1.00  0.00    -0.484 A  
HETATM    7  H4  ZMA A1201      18.734 -16.835  15.474  1.00  0.00     0.000 HD 
HETATM    8  C7  ZMA A1201      20.892 -12.673  15.606  1.00  0.00    -0.364 A  
ENDROOT
BRANCH   8   9
HETATM    9  C8  ZMA A1201      21.351 -11.233  15.574  1.00  0.00    -0.426 C  
BRANCH   9  10
HETATM   10  C9  ZMA A1201      22.296 -10.975  16.741  1.00  0.00    -0.234 C  
BRANCH  10  11
HETATM   11  N10 ZMA A1201      22.622  -9.569  16.875  1.00  0.00    -0.049 NA 
HETATM   12  H10 ZMA A1201      23.529  -9.224  16.562  1.00  0.00     0.000 HD 
BRANCH  11  13
HETATM   13  C11 ZMA A1201      21.724  -8.716  17.414  1.00  0.00     0.265 C  
HETATM   14  N13 ZMA A1201      20.482  -9.150  17.758  1.00  0.00    -0.286 NA 
HETATM   15  C14 ZMA A1201      19.562  -8.309  18.302  1.00  0.00    -0.189 C  
HETATM   16  N16 ZMA A1201      19.890  -7.028  18.501  1.00  0.00    -0.046 NA 
HETATM   17  N15 ZMA A1201      18.330  -8.763  18.638  1.00  0.00    -0.874 NA 
HETATM   18  N17 ZMA A1201      19.075  -6.037  19.044  1.00  0.00    -0.641 NA 
HETATM   19 2H15 ZMA A1201      18.091  -9.742  18.482  1.00  0.00     0.000 HD 
HETATM   20 1H15 ZMA A1201      17.640  -8.132  19.046  1.00  0.00     0.000 HD 
HETATM   21  C20 ZMA A1201      19.954  -5.011  18.978  1.00  0.00    -0.456 A  
HETATM   22  N19 ZMA A1201      21.180  -5.293  18.462  1.00  0.00    -0.332 NA 
HETATM   23  N12 ZMA A1201      22.048  -7.416  17.619  1.00  0.00    -0.178 NA 
HETATM   24  C18 ZMA A1201      21.102  -6.611  18.163  1.00  0.00     0.026 A  
BRANCH  21  25
HETATM   25  C21 ZMA A1201      19.598  -3.643  19.448  1.00  0.00    -0.398 A  
HETATM   26  C23 ZMA A1201      19.749  -1.538  19.927  1.00  0.00    -0.560 A  
HETATM   27  C22 ZMA A1201      20.484  -2.589  19.407  1.00  0.00    -0.656 A  
HETATM   28  C24 ZMA A1201      18.475  -1.989  20.256  1.00  0.00    -0.321 A  
HETATM   29  O25 ZMA A1201      18.372  -3.336  19.951  1.00  0.00    -0.488 OA 
ENDBRANCH  21  25
ENDBRANCH  11  13
ENDBRANCH  10  11
ENDBRANCH   9  10
ENDBRANCH   8   9
TORSDOF 5
ENDMDL
