REMARK  6 active torsions:
REMARK  status: ('A' for Active; 'I' for Inactive)
REMARK    1  A    between atoms: C03_12  and  C02_15
REMARK    2  A    between atoms: C02_15  and  O17_17
REMARK    3  A    between atoms: O17_17  and  C18_18
REMARK    4  A    between atoms: C19_19  and  C31_24
REMARK    5  A    between atoms: N20_21  and  C24_31
REMARK    6  A    between atoms: C24_31  and  C25_32
ROOT
HETATM    1  C13 GBQ A1201      12.083 137.184 205.492  1.00  0.00     0.417 C
HETATM    2  F15 GBQ A1201      11.469 136.765 204.460  1.00  0.00    -0.166 F
HETATM    3  F16 GBQ A1201      13.203 137.684 205.135  1.00  0.00    -0.166 F
HETATM    4  F14 GBQ A1201      11.355 138.139 206.022  1.00  0.00    -0.166 F
HETATM    5  C05 GBQ A1201      12.298 136.133 206.412  1.00  0.00     0.056 A
HETATM    6  C06 GBQ A1201      11.967 134.801 206.099  1.00  0.00     0.024 A
HETATM    7  C07 GBQ A1201      12.164 133.756 207.023  1.00  0.00     0.056 A
HETATM    8  C08 GBQ A1201      12.718 134.068 208.271  1.00  0.00     0.018 A
HETATM    9  C09 GBQ A1201      11.836 132.403 206.726  1.00  0.00     0.417 C
HETATM   10  F10 GBQ A1201      12.990 131.649 206.697  1.00  0.00    -0.166 F
HETATM   11  F11 GBQ A1201      10.985 131.879 207.726  1.00  0.00    -0.166 F
HETATM   12  C03 GBQ A1201      13.071 135.379 208.604  1.00  0.00    -0.018 A
HETATM   13  F12 GBQ A1201      11.180 132.265 205.463  1.00  0.00    -0.166 F
HETATM   14  C04 GBQ A1201      12.858 136.405 207.668  1.00  0.00     0.018 A
ENDROOT
BRANCH  12  15
HETATM   15  C02 GBQ A1201      13.602 135.620 209.885  1.00  0.00     0.148 C
HETATM   16  C01 GBQ A1201      15.121 135.625 209.844  1.00  0.00     0.043 C
BRANCH  15  17
HETATM   17  O17 GBQ A1201      13.127 136.844 210.491  1.00  0.00    -0.342 OA
BRANCH  17  18
HETATM   18  C18 GBQ A1201      11.829 136.660 211.182  1.00  0.00     0.272 C
HETATM   19  C19 GBQ A1201      11.162 138.028 211.599  1.00  0.00     0.144 C
HETATM   20  O23 GBQ A1201      11.952 135.794 212.373  1.00  0.00    -0.348 OA
HETATM   21  N20 GBQ A1201      11.939 138.618 212.717  1.00  0.00    -0.282 NA
HETATM   22  C21 GBQ A1201      12.138 137.707 213.867  1.00  0.00     0.114 C
HETATM   23  C22 GBQ A1201      12.755 136.375 213.449  1.00  0.00     0.178 C
BRANCH  19  24
HETATM   24  C31 GBQ A1201      10.994 138.842 210.443  1.00  0.00    -0.025 A
HETATM   25  C35 GBQ A1201       9.526 139.568 208.634  1.00  0.00     0.038 A
HETATM   26  C36 GBQ A1201       9.760 138.787 209.772  1.00  0.00     0.008 A
HETATM   27  C33 GBQ A1201      11.779 140.475 208.819  1.00  0.00     0.038 A
HETATM   28  C32 GBQ A1201      12.001 139.697 209.958  1.00  0.00     0.008 A
HETATM   29  C34 GBQ A1201      10.542 140.413 208.166  1.00  0.00     0.123 A
HETATM   30  F37 GBQ A1201      10.330 141.192 207.065  1.00  0.00    -0.205 F
ENDBRANCH  19  24
BRANCH  21  31
HETATM   31  C24 GBQ A1201      11.514 139.913 213.255  1.00  0.00     0.163 C
BRANCH  31  32
HETATM   32  C25 GBQ A1201      12.810 140.672 213.528  1.00  0.00     0.163 C
HETATM   33  C27 GBQ A1201      14.353 141.764 214.431  1.00  0.00     0.341 C
HETATM   34  O28 GBQ A1201      14.991 142.449 215.212  1.00  0.00    -0.250 OA
HETATM   35  N29 GBQ A1201      14.835 141.362 213.266  1.00  0.00    -0.128 N
HETATM   36  N26 GBQ A1201      13.112 141.332 214.638  1.00  0.00    -0.180 NA
HETATM   37  H29 GBQ A1201      15.759 141.556 212.880  1.00  0.00     0.160 HD
HETATM   38  N30 GBQ A1201      13.854 140.647 212.700  1.00  0.00    -0.175 NA
ENDBRANCH  31  32
ENDBRANCH  21  31
ENDBRANCH  17  18
ENDBRANCH  15  17
ENDBRANCH  12  15
TORSDOF 6
