REMARK  5 active torsions:
REMARK  status: ('A' for Active; 'I' for Inactive)
REMARK    1  A    between atoms: C7_2  and  C8_9
REMARK    2  A    between atoms: C8_9  and  C9_10
REMARK    3  A    between atoms: C9_10  and  N10_11
REMARK    4  A    between atoms: N10_11  and  C11_13
REMARK    5  A    between atoms: C20_17  and  C21_25
ROOT
HETATM    1  C1  ZMA A1201     -19.301  12.839  15.528  1.00  0.00     0.006 A
HETATM    2  C7  ZMA A1201     -20.483  12.519  14.845  1.00  0.00    -0.046 A
HETATM    3  O4  ZMA A1201     -19.504  16.508  15.397  1.00  0.00    -0.360 OA
HETATM    4  C6  ZMA A1201     -21.355  13.529  14.400  1.00  0.00     0.006 A
HETATM    5  C2  ZMA A1201     -18.967  14.175  15.696  1.00  0.00     0.033 A
HETATM    6  C5  ZMA A1201     -21.039  14.876  14.586  1.00  0.00     0.033 A
HETATM    7  H4  ZMA A1201     -20.084  17.190  15.079  1.00  0.00     0.217 HD
HETATM    8  C3  ZMA A1201     -19.830  15.190  15.222  1.00  0.00     0.073 A
ENDROOT
BRANCH   2   9
HETATM    9  C8  ZMA A1201     -20.905  11.091  14.657  1.00  0.00     0.050 C
BRANCH   9  10
HETATM   10  C9  ZMA A1201     -21.996  10.924  15.724  1.00  0.00     0.094 C
BRANCH  10  11
HETATM   11  N10 ZMA A1201     -22.348   9.533  15.926  1.00  0.00    -0.256 NA
HETATM   12  H10 ZMA A1201     -23.239   9.190  15.566  1.00  0.00     0.131 HD
BRANCH  11  13
HETATM   13  C11 ZMA A1201     -21.525   8.673  16.581  1.00  0.00     0.207 C
HETATM   14  N12 ZMA A1201     -21.912   7.380  16.751  1.00  0.00    -0.185 NA
HETATM   15  C18 ZMA A1201     -21.059   6.556  17.431  1.00  0.00     0.236 A
HETATM   16  N19 ZMA A1201     -21.223   5.243  17.745  1.00  0.00    -0.192 NA
HETATM   17  C20 ZMA A1201     -20.057   4.949  18.407  1.00  0.00     0.201 A
HETATM   18  N17 ZMA A1201     -19.151   5.972  18.535  1.00  0.00    -0.161 NA
HETATM   19 2H15 ZMA A1201     -17.978   9.640  17.967  1.00  0.00     0.126 HD
HETATM   20 1H15 ZMA A1201     -17.641   8.044  18.644  1.00  0.00     0.126 HD
HETATM   21  N16 ZMA A1201     -19.869   6.969  17.892  1.00  0.00    -0.072 NA
HETATM   22  N15 ZMA A1201     -18.265   8.678  18.145  1.00  0.00    -0.275 NA
HETATM   23  C14 ZMA A1201     -19.476   8.243  17.718  1.00  0.00     0.184 C
HETATM   24  N13 ZMA A1201     -20.307   9.088  17.053  1.00  0.00    -0.192 NA
BRANCH  17  25
HETATM   25  C21 ZMA A1201     -19.738   3.611  18.928  1.00  0.00     0.128 A
HETATM   26  C23 ZMA A1201     -19.807   1.559  19.643  1.00  0.00     0.028 A
HETATM   27  C22 ZMA A1201     -20.646   2.580  19.169  1.00  0.00     0.039 A
HETATM   28  O25 ZMA A1201     -18.436   3.314  19.228  1.00  0.00    -0.313 OA
HETATM   29  C24 ZMA A1201     -18.480   1.996  19.664  1.00  0.00     0.136 A
ENDBRANCH  17  25
ENDBRANCH  11  13
ENDBRANCH  10  11
ENDBRANCH   9  10
ENDBRANCH   2   9
TORSDOF 5
