MODEL        1
REMARK THIS MODEL IS IDENTICAL TO THE INPUT LIGAND AND NOT FROM DOCKING
REMARK 921   NORMALIZED FREE ENERGY PREDICTED BY IDOCK:   -8.84 KCAL/MOL
REMARK 922        TOTAL FREE ENERGY PREDICTED BY IDOCK:  -10.37 KCAL/MOL
REMARK 923 INTER-LIGAND FREE ENERGY PREDICTED BY IDOCK:   -9.88 KCAL/MOL
REMARK 924 INTRA-LIGAND FREE ENERGY PREDICTED BY IDOCK:   -0.49 KCAL/MOL
REMARK 927      BINDING AFFINITY PREDICTED BY RF-SCORE:    0.00 PKD
ROOT
HETATM    1  C7  89F A1201     -29.126  -4.138  38.370  1.00  0.00    -0.426 A  
HETATM    2  C10 89F A1201     -29.347  -5.566  38.364  1.00  0.00    -0.551 A  
HETATM    3  C20 89F A1201     -30.401  -6.277  37.520  1.00  0.00    -0.832 C  
HETATM    4  C16 89F A1201     -28.573  -6.379  39.199  1.00  0.00    -0.836 A  
HETATM    5  C6  89F A1201     -31.620  -5.420  37.386  1.00  0.00    -0.346 C  
HETATM    6  C19 89F A1201     -27.597  -5.839  40.024  1.00  0.00    -0.811 A  
HETATM    7  S2  89F A1201     -29.972  -2.822  37.333  1.00  0.00    -0.460 SA 
HETATM    8  C2  89F A1201     -31.531  -4.773  36.037  1.00  0.00    -0.534 A  
HETATM    9  C15 89F A1201     -27.378  -4.476  40.033  1.00  0.00    -0.295 A  
HETATM   10  C9  89F A1201     -32.152  -5.351  34.914  1.00  0.00    -0.347 A  
HETATM   11  C1  89F A1201     -30.832  -3.608  35.918  1.00  0.00    -0.331 A  
HETATM   12  C13 89F A1201     -28.131  -3.641  39.219  1.00  0.00    -0.699 A  
HETATM   13  C3  89F A1201     -30.733  -2.975  34.666  1.00  0.00    -0.476 A  
HETATM   14  C12 89F A1201     -32.054  -4.728  33.665  1.00  0.00    -0.315 A  
HETATM   15  C4  89F A1201     -31.342  -3.534  33.541  1.00  0.00    -0.394 A  
ENDROOT
BRANCH   5  16
HETATM   16  N1  89F A1201     -32.883  -6.197  37.447  1.00  0.00    -0.334 NA 
HETATM   17  N2  89F A1201     -35.135  -7.515  38.689  1.00  0.00     0.312 NA 
HETATM   18  C17 89F A1201     -33.899  -5.432  38.167  1.00  0.00    -0.401 C  
HETATM   19  C5  89F A1201     -36.421  -8.228  38.511  1.00  0.00    -0.147 C  
HETATM   20  C18 89F A1201     -34.026  -8.280  38.075  1.00  0.00    -0.405 C  
HETATM   21  C11 89F A1201     -35.243  -6.159  38.119  1.00  0.00    -0.212 C  
HETATM   22  C14 89F A1201     -32.706  -7.487  38.105  1.00  0.00    -0.365 C  
ENDBRANCH   5  16
BRANCH  14  23
HETATM   23  S1  89F A1201     -32.871  -5.457  32.204  1.00  0.00    -0.297 SA 
HETATM   24  C8  89F A1201     -31.731  -4.827  30.915  1.00  0.00    -0.378 C  
ENDBRANCH  14  23
TORSDOF 2
ENDMDL
