REMARK  6 active torsions:
REMARK  status: ('A' for Active; 'I' for Inactive)
REMARK    1  A    between atoms: C7_5  and  C9_13
REMARK    2  A    between atoms: N1_15  and  C11_16
REMARK    3  A    between atoms: N1_15  and  C10_25
REMARK    4  A    between atoms: C10_25  and  C12_26
REMARK    5  A    between atoms: C20_19  and  N2_22
REMARK    6  A    between atoms: C16_31  and  C28_32
ROOT
HETATM    1  C4  SG8 A1201     -21.066  67.055  -2.253  1.00  0.00     0.138 A
HETATM    2  C5  SG8 A1201     -20.706  65.801  -1.735  1.00  0.00     0.059 A
HETATM    3  F1  SG8 A1201     -20.721  67.385  -3.496  1.00  0.00    -0.204 F
HETATM    4  S1  SG8 A1201     -19.801  64.571  -2.576  1.00  0.00    -0.080 SA
HETATM    5  C7  SG8 A1201     -19.828  63.528  -1.198  1.00  0.00     0.090 A
HETATM    6  F2  SG8 A1201     -22.071  66.015   1.591  1.00  0.00    -0.205 F
HETATM    7  C8  SG8 A1201     -20.517  64.111  -0.122  1.00  0.00     0.070 A
HETATM    8 CL1  SG8 A1201     -20.788  63.301   1.381  1.00  0.00    -0.081 Cl
HETATM    9  C2  SG8 A1201     -22.142  67.576  -0.156  1.00  0.00     0.042 A
HETATM   10  C6  SG8 A1201     -21.033  65.413  -0.426  1.00  0.00     0.046 A
HETATM   11  C3  SG8 A1201     -21.797  67.927  -1.477  1.00  0.00     0.042 A
HETATM   12  C1  SG8 A1201     -21.751  66.336   0.353  1.00  0.00     0.133 A
ENDROOT
BRANCH   5  13
HETATM   13  C9  SG8 A1201     -19.295  62.092  -1.133  1.00  0.00     0.243 C
HETATM   14  O1  SG8 A1201     -18.099  62.005  -1.091  1.00  0.00    -0.273 OA
HETATM   15  N1  SG8 A1201     -20.158  60.873  -1.125  1.00  0.00    -0.232 N
BRANCH  15  16
HETATM   16  C11 SG8 A1201     -19.539  59.498  -0.974  1.00  0.00     0.065 C
HETATM   17  C22 SG8 A1201     -19.573  58.580  -2.211  1.00  0.00     0.021 C
HETATM   18  C18 SG8 A1201     -19.811  58.835   0.435  1.00  0.00     0.021 C
HETATM   19  C20 SG8 A1201     -19.865  56.531  -0.733  1.00  0.00     0.053 C
HETATM   20  C21 SG8 A1201     -19.153  57.146  -1.937  1.00  0.00     0.020 C
HETATM   21  C19 SG8 A1201     -19.524  57.339   0.528  1.00  0.00     0.020 C
BRANCH  19  22
HETATM   22  N2  SG8 A1201     -19.761  55.085  -0.465  1.00  0.00    -0.316 NA
HETATM   23  H2  SG8 A1201     -19.210  54.897   0.373  1.00  0.00     0.122 HD
HETATM   24  C23 SG8 A1201     -21.100  54.460  -0.388  1.00  0.00     0.101 C
ENDBRANCH  19  22
ENDBRANCH  15  16
BRANCH  15  25
HETATM   25  C10 SG8 A1201     -21.612  60.891  -1.192  1.00  0.00     0.128 C
BRANCH  25  26
HETATM   26  C12 SG8 A1201     -22.108  61.817  -2.369  1.00  0.00    -0.032 A
HETATM   27  C17 SG8 A1201     -22.999  63.000  -2.027  1.00  0.00     0.013 A
HETATM   28  C15 SG8 A1201     -22.940  63.629  -4.443  1.00  0.00     0.008 A
HETATM   29  C13 SG8 A1201     -21.680  61.632  -3.672  1.00  0.00     0.005 A
HETATM   30  C14 SG8 A1201     -22.108  62.579  -4.769  1.00  0.00     0.001 A
HETATM   31  C16 SG8 A1201     -23.370  63.890  -3.006  1.00  0.00    -0.017 A
BRANCH  31  32
HETATM   32  C28 SG8 A1201     -24.231  65.075  -2.643  1.00  0.00    -0.015 A
HETATM   33  C24 SG8 A1201     -24.594  65.339  -1.228  1.00  0.00     0.028 A
HETATM   34  C25 SG8 A1201     -25.345  66.424  -0.894  1.00  0.00     0.111 A
HETATM   35  N3  SG8 A1201     -25.841  67.330  -1.970  1.00  0.00    -0.263 NA
HETATM   36  C26 SG8 A1201     -25.517  67.115  -3.252  1.00  0.00     0.111 A
HETATM   37  C27 SG8 A1201     -24.672  65.933  -3.610  1.00  0.00     0.028 A
ENDBRANCH  31  32
ENDBRANCH  25  26
ENDBRANCH  15  25
ENDBRANCH   5  13
TORSDOF 6
