REMARK  4 active torsions:
REMARK  status: ('A' for Active; 'I' for Inactive)
REMARK    1  A    between atoms: C6_8  and  C7_10
REMARK    2  A    between atoms: C8_11  and  C9_12
REMARK    3  A    between atoms: C10_14  and  C11_15
REMARK    4  A    between atoms: C12_16  and  C13_17
ROOT
HETATM    1  C1  RET A1296      34.693   6.618  17.693  1.00  0.00    -0.010 C
HETATM    2  C2  RET A1296      33.949   6.007  16.481  1.00  0.00     0.011 C
HETATM    3  C17 RET A1296      35.742   5.525  18.087  1.00  0.00     0.016 C
HETATM    4  C16 RET A1296      33.641   6.699  18.830  1.00  0.00     0.016 C
HETATM    5  C3  RET A1296      33.295   6.984  15.554  1.00  0.00     0.005 C
HETATM    6  C4  RET A1296      34.250   8.061  15.075  1.00  0.00     0.031 C
HETATM    7  C5  RET A1296      35.073   8.713  16.182  1.00  0.00    -0.069 C
HETATM    8  C6  RET A1296      35.369   8.034  17.402  1.00  0.00    -0.043 C
HETATM    9  C18 RET A1296      35.454  10.113  15.758  1.00  0.00     0.039 C
ENDROOT
BRANCH   8  10
HETATM   10  C7  RET A1296      36.337   8.608  18.406  1.00  0.00     0.004 C
HETATM   11  C8  RET A1296      37.438   9.401  18.258  1.00  0.00     0.003 C
BRANCH  11  12
HETATM   12  C9  RET A1296      38.431   9.872  19.234  1.00  0.00    -0.050 C
HETATM   13  C19 RET A1296      38.163   9.605  20.709  1.00  0.00     0.044 C
HETATM   14  C10 RET A1296      39.519  10.514  18.702  1.00  0.00     0.003 C
BRANCH  14  15
HETATM   15  C11 RET A1296      40.671  10.996  19.451  1.00  0.00     0.001 C
HETATM   16  C12 RET A1296      41.798  11.514  18.826  1.00  0.00     0.003 C
BRANCH  16  17
HETATM   17  C13 RET A1296      42.539  11.088  17.607  1.00  0.00    -0.055 C
HETATM   18  C14 RET A1296      43.680  11.789  17.413  1.00  0.00    -0.027 C
HETATM   19  C20 RET A1296      42.077   9.968  16.702  1.00  0.00     0.043 C
HETATM   20  C15 RET A1296      44.708  11.526  16.458  1.00  0.00     0.035 C
ENDBRANCH  16  17
ENDBRANCH  14  15
ENDBRANCH  11  12
ENDBRANCH   8  10
TORSDOF 4
