MODEL        1
REMARK THIS MODEL IS IDENTICAL TO THE INPUT LIGAND AND NOT FROM DOCKING
REMARK 921   NORMALIZED FREE ENERGY PREDICTED BY IDOCK:   -7.14 KCAL/MOL
REMARK 922        TOTAL FREE ENERGY PREDICTED BY IDOCK:   -9.58 KCAL/MOL
REMARK 923 INTER-LIGAND FREE ENERGY PREDICTED BY IDOCK:   -9.23 KCAL/MOL
REMARK 924 INTRA-LIGAND FREE ENERGY PREDICTED BY IDOCK:   -0.34 KCAL/MOL
REMARK 927      BINDING AFFINITY PREDICTED BY RF-SCORE:    0.00 PKD
ROOT
HETATM    1  O2  P32 A1355      54.433 -19.466 -26.915  1.00  0.00    -1.089 OA 
HETATM    2  H2  P32 A1355      54.061 -19.273 -27.768  1.00  0.00     0.000 HD 
HETATM    3  C10 P32 A1355      53.507 -20.164 -26.125  1.00  0.00    -0.352 C  
ENDROOT
BRANCH   3   4
HETATM    4  C9  P32 A1355      52.273 -19.281 -25.913  1.00  0.00    -0.368 C  
BRANCH   4   5
HETATM    5  O1  P32 A1355      51.303 -20.003 -25.192  1.00  0.00    -0.384 OA 
BRANCH   5   6
HETATM    6  C4  P32 A1355      50.074 -19.414 -24.857  1.00  0.00    -0.430 C  
HETATM    7  C5  P32 A1355      49.845 -17.910 -25.028  1.00  0.00    -0.772 C  
HETATM    8  C6  P32 A1355      48.488 -17.286 -24.653  1.00  0.00    -0.692 C  
HETATM    9  C7  P32 A1355      47.357 -18.155 -24.113  1.00  0.00    -0.535 C  
HETATM   10  C8  P32 A1355      47.594 -19.662 -23.943  1.00  0.00    -0.175 A  
HETATM   11  N1  P32 A1355      46.702 -20.739 -23.446  1.00  0.00     0.149 NA 
HETATM   12  H1  P32 A1355      45.740 -20.623 -23.126  1.00  0.00     0.000 HD 
HETATM   13  C1  P32 A1355      47.470 -22.032 -23.499  1.00  0.00    -0.434 A  
HETATM   14  C2  P32 A1355      48.860 -21.741 -24.039  1.00  0.00    -0.511 A  
HETATM   15  C16 P32 A1355      46.966 -23.315 -23.108  1.00  0.00    -0.489 C  
HETATM   16  N3  P32 A1355      46.598 -24.349 -22.803  1.00  0.00     0.166 NA 
HETATM   17  C3  P32 A1355      48.943 -20.285 -24.310  1.00  0.00    -0.532 A  
ENDBRANCH   5   6
ENDBRANCH   4   5
ENDBRANCH   3   4
BRANCH   3  18
HETATM   18  C11 P32 A1355      54.110 -20.477 -24.742  1.00  0.00    -0.024 C  
BRANCH  18  19
HETATM   19  N2  P32 A1355      55.512 -20.939 -24.722  1.00  0.00    -0.747 NA 
HETATM   20  H2  P32 A1355      56.136 -20.164 -24.497  1.00  0.00     0.000 HD 
HETATM   21  C14 P32 A1355      54.699 -23.214 -23.960  1.00  0.00    -0.451 C  
HETATM   22  C12 P32 A1355      55.778 -22.100 -23.814  1.00  0.00    -0.400 C  
HETATM   23  C13 P32 A1355      57.153 -22.723 -24.165  1.00  0.00    -0.507 C  
HETATM   24  C15 P32 A1355      55.863 -21.635 -22.338  1.00  0.00    -0.656 C  
ENDBRANCH  18  19
ENDBRANCH   3  18
TORSDOF 5
ENDMDL
