MODEL        1
REMARK THIS MODEL IS IDENTICAL TO THE INPUT LIGAND AND NOT FROM DOCKING
REMARK 921   NORMALIZED FREE ENERGY PREDICTED BY IDOCK:   -9.91 KCAL/MOL
REMARK 922        TOTAL FREE ENERGY PREDICTED BY IDOCK:  -16.28 KCAL/MOL
REMARK 923 INTER-LIGAND FREE ENERGY PREDICTED BY IDOCK:  -15.71 KCAL/MOL
REMARK 924 INTRA-LIGAND FREE ENERGY PREDICTED BY IDOCK:   -0.58 KCAL/MOL
REMARK 927      BINDING AFFINITY PREDICTED BY RF-SCORE:    0.00 PKD
ROOT
HETATM    1  O1  CVD A1359     -25.554 -11.713  23.371  1.00  0.00    -0.873 OA 
HETATM    2  C1  CVD A1359     -24.628 -11.907  24.439  1.00  0.00    -0.543 C  
HETATM    3  H1  CVD A1359     -25.617 -10.770  23.277  1.00  0.00     0.000 HD 
ENDROOT
BRANCH   2   4
HETATM    4  C15 CVD A1359     -24.526 -13.428  24.590  1.00  0.00    -0.368 C  
BRANCH   4   5
HETATM    5  N2  CVD A1359     -25.918 -13.934  24.664  1.00  0.00    -0.824 NA 
HETATM    6  H2  CVD A1359     -26.492 -13.597  23.891  1.00  0.00     0.000 HD 
BRANCH   5   7
HETATM    7  C16 CVD A1359     -25.902 -15.415  24.747  1.00  0.00    -0.291 C  
BRANCH   7   8
HETATM    8  C17 CVD A1359     -27.266 -15.866  25.274  1.00  0.00    -0.370 C  
BRANCH   8   9
HETATM    9  O3  CVD A1359     -28.283 -14.968  24.829  1.00  0.00    -0.147 OA 
BRANCH   9  10
HETATM   10  C18 CVD A1359     -29.646 -15.229  25.030  1.00  0.00    -0.370 A  
HETATM   11  C23 CVD A1359     -30.472 -15.494  23.914  1.00  0.00    -0.586 A  
HETATM   12  C19 CVD A1359     -30.198 -15.221  26.336  1.00  0.00    -0.353 A  
HETATM   13  C21 CVD A1359     -32.389 -15.765  25.355  1.00  0.00    -0.426 A  
HETATM   14  C22 CVD A1359     -31.835 -15.765  24.064  1.00  0.00    -0.593 A  
HETATM   15  C20 CVD A1359     -31.577 -15.487  26.477  1.00  0.00    -0.372 A  
BRANCH  12  16
HETATM   16  O4  CVD A1359     -29.397 -14.997  27.477  1.00  0.00    -0.337 OA 
HETATM   17  C24 CVD A1359     -29.387 -13.782  28.278  1.00  0.00    -0.263 C  
ENDBRANCH  12  16
ENDBRANCH   9  10
ENDBRANCH   8   9
ENDBRANCH   7   8
ENDBRANCH   5   7
ENDBRANCH   4   5
ENDBRANCH   2   4
BRANCH   2  18
HETATM   18  C2  CVD A1359     -23.298 -11.347  24.021  1.00  0.00    -0.427 C  
BRANCH  18  19
HETATM   19  O2  CVD A1359     -22.390 -11.523  25.102  1.00  0.00    -0.392 OA 
BRANCH  19  20
HETATM   20  C3  CVD A1359     -21.044 -11.285  24.943  1.00  0.00    -0.457 A  
HETATM   21  C9  CVD A1359     -19.192 -13.250  28.988  1.00  0.00    -0.645 A  
HETATM   22  C10 CVD A1359     -20.402 -13.676  29.554  1.00  0.00    -0.674 A  
HETATM   23  C14 CVD A1359     -20.544 -10.668  23.785  1.00  0.00    -0.871 A  
HETATM   24  C13 CVD A1359     -19.183 -10.430  23.673  1.00  0.00    -0.955 A  
HETATM   25  C11 CVD A1359     -21.610 -13.455  28.901  1.00  0.00    -0.540 A  
HETATM   26  C12 CVD A1359     -18.334 -10.879  24.667  1.00  0.00    -0.692 A  
HETATM   27  C4  CVD A1359     -20.172 -11.731  25.911  1.00  0.00    -0.655 A  
HETATM   28  C8  CVD A1359     -21.604 -12.801  27.678  1.00  0.00    -0.551 A  
HETATM   29  C6  CVD A1359     -18.825 -11.524  25.787  1.00  0.00    -0.486 A  
HETATM   30  C5  CVD A1359     -20.409 -12.392  27.107  1.00  0.00    -0.613 A  
HETATM   31  N1  CVD A1359     -18.255 -12.039  26.943  1.00  0.00    -0.615 NA 
HETATM   32  C7  CVD A1359     -19.209 -12.579  27.762  1.00  0.00    -0.418 A  
HETATM   33  H1  CVD A1359     -17.257 -12.018  27.154  1.00  0.00     0.000 HD 
ENDBRANCH  19  20
ENDBRANCH  18  19
ENDBRANCH   2  18
TORSDOF 10
ENDMDL
