MODEL        1
REMARK THIS MODEL IS IDENTICAL TO THE INPUT LIGAND AND NOT FROM DOCKING
REMARK 921   NORMALIZED FREE ENERGY PREDICTED BY IDOCK:   -3.87 KCAL/MOL
REMARK 922        TOTAL FREE ENERGY PREDICTED BY IDOCK:   -5.04 KCAL/MOL
REMARK 923 INTER-LIGAND FREE ENERGY PREDICTED BY IDOCK:   -4.77 KCAL/MOL
REMARK 924 INTRA-LIGAND FREE ENERGY PREDICTED BY IDOCK:   -0.27 KCAL/MOL
REMARK 927      BINDING AFFINITY PREDICTED BY RF-SCORE:    0.00 PKD
ROOT
HETATM    1  C1  RET A1296      34.693   6.618  17.693  1.00  0.00    -0.511 C  
HETATM    2  C2  RET A1296      33.949   6.007  16.481  1.00  0.00    -0.721 C  
HETATM    3  C17 RET A1296      35.742   5.525  18.087  1.00  0.00    -0.549 C  
HETATM    4  C16 RET A1296      33.641   6.699  18.830  1.00  0.00    -0.612 C  
HETATM    5  C3  RET A1296      33.295   6.984  15.554  1.00  0.00    -0.762 C  
HETATM    6  C4  RET A1296      34.250   8.061  15.075  1.00  0.00    -0.812 C  
HETATM    7  C5  RET A1296      35.073   8.713  16.182  1.00  0.00    -0.691 C  
HETATM    8  C6  RET A1296      35.369   8.034  17.402  1.00  0.00    -0.541 C  
HETATM    9  C18 RET A1296      35.454  10.113  15.758  1.00  0.00    -0.871 C  
ENDROOT
BRANCH   8  10
HETATM   10  C7  RET A1296      36.337   8.608  18.406  1.00  0.00    -0.555 C  
HETATM   11  C8  RET A1296      37.438   9.401  18.258  1.00  0.00    -0.545 C  
BRANCH  11  12
HETATM   12  C9  RET A1296      38.431   9.872  19.234  1.00  0.00    -0.554 C  
HETATM   13  C19 RET A1296      38.163   9.605  20.709  1.00  0.00    -0.602 C  
HETATM   14  C10 RET A1296      39.519  10.514  18.702  1.00  0.00    -0.651 C  
BRANCH  14  15
HETATM   15  C11 RET A1296      40.671  10.996  19.451  1.00  0.00    -0.603 C  
HETATM   16  C12 RET A1296      41.798  11.514  18.826  1.00  0.00    -0.326 C  
BRANCH  16  17
HETATM   17  C13 RET A1296      42.539  11.088  17.607  1.00  0.00    -0.496 C  
HETATM   18  C14 RET A1296      43.680  11.789  17.413  1.00  0.00     0.941 C  
HETATM   19  C20 RET A1296      42.077   9.968  16.702  1.00  0.00    -0.847 C  
HETATM   20  C15 RET A1296      44.708  11.526  16.458  1.00  0.00     5.535 C  
ENDBRANCH  16  17
ENDBRANCH  14  15
ENDBRANCH  11  12
ENDBRANCH   8  10
TORSDOF 4
ENDMDL
