REMARK  5 active torsions:
REMARK  status: ('A' for Active; 'I' for Inactive)
REMARK    1  A    between atoms: C7_8  and  C8_9
REMARK    2  A    between atoms: C8_9  and  C9_10
REMARK    3  A    between atoms: C9_10  and  N10_11
REMARK    4  A    between atoms: N10_11  and  C11_13
REMARK    5  A    between atoms: C20_23  and  C21_25
ROOT
HETATM    1  C1  ZMA A1201      19.743 167.920  15.739  1.00  0.00     0.006 A
HETATM    2  C2  ZMA A1201      19.419 166.567  15.864  1.00  0.00     0.033 A
HETATM    3  C3  ZMA A1201      20.252 165.599  15.283  1.00  0.00     0.073 A
HETATM    4  O4  ZMA A1201      19.937 164.276  15.398  1.00  0.00    -0.360 OA
HETATM    5  C5  ZMA A1201      21.410 165.974  14.586  1.00  0.00     0.033 A
HETATM    6  C6  ZMA A1201      21.733 167.327  14.454  1.00  0.00     0.006 A
HETATM    7  H4  ZMA A1201      20.501 163.621  15.005  1.00  0.00     0.217 HD
HETATM    8  C7  ZMA A1201      20.899 168.294  15.036  1.00  0.00    -0.046 A
ENDROOT
BRANCH   8   9
HETATM    9  C8  ZMA A1201      21.257 169.754  14.901  1.00  0.00     0.050 C
BRANCH   9  10
HETATM   10  C9  ZMA A1201      22.139 170.178  16.070  1.00  0.00     0.094 C
BRANCH  10  11
HETATM   11  N10 ZMA A1201      22.336 171.610  16.095  1.00  0.00    -0.256 NA
HETATM   12  H10 ZMA A1201      23.124 172.009  15.585  1.00  0.00     0.131 HD
BRANCH  11  13
HETATM   13  C11 ZMA A1201      21.506 172.438  16.774  1.00  0.00     0.207 C
HETATM   14  N13 ZMA A1201      20.316 171.992  17.278  1.00  0.00    -0.192 NA
HETATM   15  C14 ZMA A1201      19.487 172.822  17.957  1.00  0.00     0.184 C
HETATM   16  N16 ZMA A1201      19.864 174.105  18.127  1.00  0.00    -0.072 NA
HETATM   17  N15 ZMA A1201      18.316 172.343  18.440  1.00  0.00    -0.275 NA
HETATM   18  C18 ZMA A1201      21.030 174.537  17.633  1.00  0.00     0.236 A
HETATM   19 1H15 ZMA A1201      17.692 172.968  18.951  1.00  0.00     0.126 HD
HETATM   20 2H15 ZMA A1201      18.060 171.366  18.294  1.00  0.00     0.126 HD
HETATM   21  N19 ZMA A1201      21.164 175.849  17.941  1.00  0.00    -0.192 NA
HETATM   22  N12 ZMA A1201      21.882 173.736  16.950  1.00  0.00    -0.185 NA
HETATM   23  C20 ZMA A1201      20.020 176.115  18.624  1.00  0.00     0.201 A
HETATM   24  N17 ZMA A1201      19.145 175.096  18.795  1.00  0.00    -0.161 NA
BRANCH  23  25
HETATM   25  C21 ZMA A1201      19.731 177.459  19.166  1.00  0.00     0.128 A
HETATM   26  C22 ZMA A1201      20.685 178.436  19.312  1.00  0.00     0.039 A
HETATM   27  C23 ZMA A1201      19.949 179.509  19.788  1.00  0.00     0.028 A
HETATM   28  C24 ZMA A1201      18.605 179.154  19.872  1.00  0.00     0.136 A
HETATM   29  O25 ZMA A1201      18.460 177.843  19.453  1.00  0.00    -0.313 OA
ENDBRANCH  23  25
ENDBRANCH  11  13
ENDBRANCH  10  11
ENDBRANCH   9  10
ENDBRANCH   8   9
TORSDOF 5
