REMARK  9 active torsions:
REMARK  status: ('A' for Active; 'I' for Inactive)
REMARK    1  A    between atoms: C05_2  and  C04_7
REMARK    2  A    between atoms: C04_7  and  N03_8
REMARK    3  A    between atoms: N03_8  and  C02_11
REMARK    4  A    between atoms: C11_10  and  C13_13
REMARK    5  A    between atoms: C13_13  and  N14_14
REMARK    6  A    between atoms: N14_14  and  C15_15
REMARK    7  A    between atoms: N14_14  and  S23_23
REMARK    8  A    between atoms: S23_23  and  C26_26
REMARK    9  A    between atoms: C18_16  and  O21_21
ROOT
HETATM    1  C10 7MA A2001      38.452  38.649 -50.444  1.00  0.00     0.008 A
HETATM    2  C05 7MA A2001      39.481  38.828 -51.363  1.00  0.00    -0.015 A
HETATM    3  C08 7MA A2001      39.864  39.400 -48.649  1.00  0.00     0.111 A
HETATM    4  C06 7MA A2001      40.709  39.296 -50.902  1.00  0.00     0.115 A
HETATM    5  N07 7MA A2001      40.905  39.580 -49.549  1.00  0.00    -0.263 NA
HETATM    6  C09 7MA A2001      38.641  38.923 -49.102  1.00  0.00     0.020 A
ENDROOT
BRANCH   2   7
HETATM    7  C04 7MA A2001      39.254  38.532 -52.721  1.00  0.00     0.129 C
BRANCH   7   8
HETATM    8  N03 7MA A2001      40.519  38.450 -53.467  1.00  0.00    -0.239 N
HETATM    9  O12 7MA A2001      40.122  40.444 -54.436  1.00  0.00    -0.277 OA
HETATM   10  C11 7MA A2001      40.840  39.462 -54.319  1.00  0.00     0.229 C
BRANCH   8  11
HETATM   11  C02 7MA A2001      41.328  37.214 -53.307  1.00  0.00     0.089 C
HETATM   12  C01 7MA A2001      40.658  36.128 -54.139  1.00  0.00     0.021 C
ENDBRANCH   8  11
BRANCH  10  13
HETATM   13  C13 7MA A2001      42.156  39.359 -55.101  1.00  0.00     0.292 C
BRANCH  13  14
HETATM   14  N14 7MA A2001      43.223  39.557 -54.121  1.00  0.00    -0.815 N
BRANCH  14  15
HETATM   15  C15 7MA A2001      43.350  40.823 -53.668  1.00  0.00     0.129 A
HETATM   16  C18 7MA A2001      43.650  43.303 -52.468  1.00  0.00     0.168 A
HETATM   17  C20 7MA A2001      43.311  41.968 -54.476  1.00  0.00     0.037 A
HETATM   18  C16 7MA A2001      43.546  40.944 -52.294  1.00  0.00     0.145 A
HETATM   19  N17 7MA A2001      43.700  42.194 -51.703  1.00  0.00    -0.230 NA
HETATM   20  C19 7MA A2001      43.459  43.212 -53.861  1.00  0.00     0.056 A
BRANCH  16  21
HETATM   21  O21 7MA A2001      43.798  44.513 -51.882  1.00  0.00    -0.331 OA
HETATM   22  C22 7MA A2001      44.008  44.368 -50.474  1.00  0.00     0.203 C
ENDBRANCH  16  21
ENDBRANCH  14  15
BRANCH  14  23
HETATM   23  S23 7MA A2001      44.614  38.912 -54.618  1.00  0.00     2.570 S
HETATM   24  O24 7MA A2001      44.252  37.539 -55.187  1.00  0.00    -0.924 OA
HETATM   25  O25 7MA A2001      45.572  38.728 -53.461  1.00  0.00    -0.924 OA
BRANCH  23  26
HETATM   26  C26 7MA A2001      45.441  39.864 -55.880  1.00  0.00    -0.580 A
HETATM   27  C32 7MA A2001      46.741  41.289 -54.314  1.00  0.00     0.036 C
HETATM   28  C27 7MA A2001      45.157  39.539 -57.200  1.00  0.00     0.123 A
HETATM   29  C29 7MA A2001      46.679  41.224 -57.962  1.00  0.00     0.003 A
HETATM   30  C30 7MA A2001      46.978  41.558 -56.655  1.00  0.00     0.025 A
HETATM   31  C28 7MA A2001      45.766  40.221 -58.238  1.00  0.00     0.018 A
HETATM   32  C31 7MA A2001      46.370  40.885 -55.600  1.00  0.00     0.070 A
ENDBRANCH  23  26
ENDBRANCH  14  23
ENDBRANCH  13  14
ENDBRANCH  10  13
ENDBRANCH   7   8
ENDBRANCH   2   7
TORSDOF 9
