REMARK  6 active torsions:
REMARK  status: ('A' for Active; 'I' for Inactive)
REMARK    1  A    between atoms: C7_3  and  C8_10
REMARK    2  A    between atoms: C5_6  and  O2_22
REMARK    3  A    between atoms: N1_12  and  C9_14
REMARK    4  A    between atoms: C9_14  and  C10_15
REMARK    5  A    between atoms: C2_4  and  C16_24
REMARK    6  A    between atoms: N2_16  and  C14_20
ROOT
HETATM    1  C1  ETQ A1200      -0.808 -12.336  10.552  1.00  0.00     0.090 A
HETATM    2  O1  ETQ A1200      -1.529 -12.230  11.699  1.00  0.00    -0.359 OA
HETATM    3  C7  ETQ A1200      -0.025 -13.478  10.328  1.00  0.00     0.095 A
HETATM    4  C2  ETQ A1200      -0.877 -11.305   9.607  1.00  0.00    -0.016 A
HETATM    5  H1  ETQ A1200      -2.059 -11.456  11.851  1.00  0.00     0.217 HD
HETATM    6  C5  ETQ A1200       0.735 -13.562   9.154  1.00  0.00     0.108 A
HETATM    7  C4  ETQ A1200       0.688 -12.528   8.220  1.00  0.00     0.072 A
HETATM    8 CL1  ETQ A1200       1.609 -12.656   6.762  1.00  0.00    -0.081 Cl
HETATM    9  C3  ETQ A1200      -0.110 -11.409   8.445  1.00  0.00     0.028 A
ENDROOT
BRANCH   3  10
HETATM   10  C8  ETQ A1200       0.036 -14.573  11.418  1.00  0.00     0.237 C
HETATM   11  O3  ETQ A1200      -0.896 -14.720  12.206  1.00  0.00    -0.274 OA
HETATM   12  N1  ETQ A1200       1.169 -15.276  11.481  1.00  0.00    -0.253 N
HETATM   13  H1  ETQ A1200       1.905 -15.068  10.806  1.00  0.00     0.131 HD
BRANCH  12  14
HETATM   14  C9  ETQ A1200       1.414 -16.339  12.476  1.00  0.00     0.108 C
BRANCH  14  15
HETATM   15  C10 ETQ A1200       0.376 -17.461  12.360  1.00  0.00     0.071 C
HETATM   16  N2  ETQ A1200       0.627 -18.263  11.145  1.00  0.00    -0.298 NA
HETATM   17  C11 ETQ A1200       0.522 -18.414  13.544  1.00  0.00     0.021 C
HETATM   18  C13 ETQ A1200       1.059 -19.607  11.578  1.00  0.00     0.085 C
HETATM   19  C12 ETQ A1200       1.509 -19.445  13.022  1.00  0.00     0.017 C
BRANCH  16  20
HETATM   20  C14 ETQ A1200      -0.622 -18.363  10.378  1.00  0.00     0.081 C
HETATM   21  C15 ETQ A1200      -0.320 -18.626   8.910  1.00  0.00     0.020 C
ENDBRANCH  16  20
ENDBRANCH  14  15
ENDBRANCH  12  14
ENDBRANCH   3  10
BRANCH   6  22
HETATM   22  O2  ETQ A1200       1.505 -14.650   8.887  1.00  0.00    -0.346 OA
HETATM   23  C6  ETQ A1200       0.776 -15.529   8.019  1.00  0.00     0.202 C
ENDBRANCH   6  22
BRANCH   4  24
HETATM   24  C16 ETQ A1200      -1.689 -10.011   9.786  1.00  0.00     0.034 C
HETATM   25  C17 ETQ A1200      -3.187 -10.271   9.960  1.00  0.00     0.009 C
ENDBRANCH   4  24
TORSDOF 6
