REMARK  6 active torsions:
REMARK  status: ('A' for Active; 'I' for Inactive)
REMARK    1  A    between atoms: C10_3  and  C11_4
REMARK    2  A    between atoms: C10_3  and  C9_11
REMARK    3  A    between atoms: C11_4  and  N2_5
REMARK    4  A    between atoms: C9_11  and  O1_12
REMARK    5  A    between atoms: O1_12  and  C4_13
REMARK    6  A    between atoms: C1_20  and  C16_23
ROOT
HETATM    1  O2  P32 A1361     -23.927   4.453  18.022  1.00  0.00    -0.388 OA
HETATM    2  H2  P32 A1361     -24.517   3.708  18.024  1.00  0.00     0.210 HD
HETATM    3  C10 P32 A1361     -24.110   5.308  16.851  1.00  0.00     0.154 C
ENDROOT
BRANCH   3   4
HETATM    4  C11 P32 A1361     -23.180   6.482  16.848  1.00  0.00     0.115 C
BRANCH   4   5
HETATM    5  N2  P32 A1361     -23.264   7.188  18.130  1.00  0.00    -0.309 NA
HETATM    6  C15 P32 A1361     -21.478   8.819  17.250  1.00  0.00     0.027 C
HETATM    7  H2  P32 A1361     -22.763   6.681  18.860  1.00  0.00     0.123 HD
HETATM    8  C14 P32 A1361     -23.856   9.507  17.320  1.00  0.00     0.027 C
HETATM    9  C12 P32 A1361     -22.784   8.634  18.042  1.00  0.00     0.011 C
HETATM   10  C13 P32 A1361     -22.548   9.268  19.452  1.00  0.00     0.027 C
ENDBRANCH   4   5
ENDBRANCH   3   4
BRANCH   3  11
HETATM   11  C9  P32 A1361     -23.752   4.506  15.601  1.00  0.00     0.200 C
BRANCH  11  12
HETATM   12  O1  P32 A1361     -24.237   5.191  14.527  1.00  0.00    -0.341 OA
BRANCH  12  13
HETATM   13  C4  P32 A1361     -23.846   4.761  13.267  1.00  0.00     0.085 A
HETATM   14  C5  P32 A1361     -23.365   3.509  13.003  1.00  0.00     0.033 A
HETATM   15  C6  P32 A1361     -22.986   3.135  11.711  1.00  0.00     0.004 A
HETATM   16  C7  P32 A1361     -23.167   4.078  10.687  1.00  0.00     0.020 A
HETATM   17  C8  P32 A1361     -23.644   5.302  10.971  1.00  0.00     0.030 A
HETATM   18  C3  P32 A1361     -23.977   5.641  12.254  1.00  0.00     0.025 A
HETATM   19  C2  P32 A1361     -24.453   6.886  12.216  1.00  0.00     0.041 A
HETATM   20  C1  P32 A1361     -24.370   7.312  10.935  1.00  0.00     0.075 A
HETATM   21  H1  P32 A1361     -23.612   6.436   9.201  1.00  0.00     0.134 HD
HETATM   22  N1  P32 A1361     -23.837   6.367  10.193  1.00  0.00    -0.251 NA
BRANCH  20  23
HETATM   23  C16 P32 A1361     -24.759   8.667  10.469  1.00  0.00    -0.050 C
HETATM   24  N3  P32 A1361     -25.078   9.839  10.026  1.00  0.00    -0.268 NA
HETATM   25  H32 P32 A1361     -24.609   9.653   9.140  1.00  0.00     0.133 HD
HETATM   26  H31 P32 A1361     -25.345  10.770   9.706  1.00  0.00     0.133 HD
ENDBRANCH  20  23
ENDBRANCH  12  13
ENDBRANCH  11  12
ENDBRANCH   3  11
TORSDOF 6
