REMARK  7 active torsions:
REMARK  status: ('A' for Active; 'I' for Inactive)
REMARK    1  A    between atoms: C7_10  and  C8_11
REMARK    2  A    between atoms: C8_11  and  S2_12
REMARK    3  A    between atoms: S2_12  and  C9_13
REMARK    4  A    between atoms: C9_13  and  N4_14
REMARK    5  A    between atoms: C9_13  and  N3_22
REMARK    6  A    between atoms: N4_14  and  C16_16
REMARK    7  A    between atoms: N3_22  and  C10_24
ROOT
HETATM    1  C1  ITD A1500     -28.403  -0.080  23.035  1.00  0.00     0.041 C
HETATM    2  C2  ITD A1500     -29.229   1.100  22.545  1.00  0.00     0.087 C
HETATM    3  C3  ITD A1500     -28.859   2.396  23.265  1.00  0.00     0.041 C
HETATM    4  C6  ITD A1500     -29.079   1.241  21.020  1.00  0.00     0.070 C
HETATM    5  N2  ITD A1500     -30.455   1.010  20.609  1.00  0.00    -0.204 NA
HETATM    6  C4  ITD A1500     -31.268   0.778  21.601  1.00  0.00     0.152 C
HETATM    7  N1  ITD A1500     -30.641   0.818  22.781  1.00  0.00    -0.254 NA
HETATM    8  S1  ITD A1500     -32.903   0.534  21.160  1.00  0.00    -0.064 SA
HETATM    9  C5  ITD A1500     -32.470   0.723  19.486  1.00  0.00     0.065 C
HETATM   10  C7  ITD A1500     -31.081   0.971  19.404  1.00  0.00     0.023 C
ENDROOT
BRANCH  10  11
HETATM   11  C8  ITD A1500     -30.368   1.233  18.104  1.00  0.00     0.124 C
BRANCH  11  12
HETATM   12  S2  ITD A1500     -30.272   2.983  17.927  1.00  0.00    -0.096 SA
BRANCH  12  13
HETATM   13  C9  ITD A1500     -31.773   3.609  17.558  1.00  0.00     0.095 C
BRANCH  13  14
HETATM   14  N4  ITD A1500     -32.135   4.833  17.980  1.00  0.00    -0.270 NA
HETATM   15  H4  ITD A1500     -32.384   5.503  17.252  1.00  0.00     0.129 HD
BRANCH  14  16
HETATM   16  C16 ITD A1500     -32.216   5.324  19.363  1.00  0.00     0.060 C
HETATM   17  C21 ITD A1500     -32.010   6.838  19.411  1.00  0.00     0.019 C
HETATM   18  C20 ITD A1500     -32.245   7.409  20.812  1.00  0.00     0.002 C
HETATM   19  C17 ITD A1500     -31.260   4.683  20.371  1.00  0.00     0.019 C
HETATM   20  C18 ITD A1500     -31.481   5.214  21.790  1.00  0.00     0.002 C
HETATM   21  C19 ITD A1500     -31.377   6.738  21.877  1.00  0.00     0.000 C
ENDBRANCH  14  16
ENDBRANCH  13  14
BRANCH  13  22
HETATM   22  N3  ITD A1500     -32.532   2.822  16.783  1.00  0.00    -0.270 NA
HETATM   23  H3  ITD A1500     -32.102   1.925  16.556  1.00  0.00     0.129 HD
BRANCH  22  24
HETATM   24  C10 ITD A1500     -33.854   3.008  16.205  1.00  0.00     0.060 C
HETATM   25  C12 ITD A1500     -35.148   3.572  14.149  1.00  0.00     0.002 C
HETATM   26  C11 ITD A1500     -33.818   3.750  14.876  1.00  0.00     0.019 C
HETATM   27  C14 ITD A1500     -36.330   3.380  16.376  1.00  0.00     0.002 C
HETATM   28  C13 ITD A1500     -36.310   4.064  15.009  1.00  0.00     0.000 C
HETATM   29  C15 ITD A1500     -34.986   3.489  17.106  1.00  0.00     0.019 C
ENDBRANCH  22  24
ENDBRANCH  13  22
ENDBRANCH  12  13
ENDBRANCH  11  12
ENDBRANCH  10  11
TORSDOF 7
