MODEL        1
REMARK THIS MODEL IS IDENTICAL TO THE INPUT LIGAND AND NOT FROM DOCKING
REMARK 921   NORMALIZED FREE ENERGY PREDICTED BY IDOCK:   -8.30 KCAL/MOL
REMARK 922        TOTAL FREE ENERGY PREDICTED BY IDOCK:  -11.64 KCAL/MOL
REMARK 923 INTER-LIGAND FREE ENERGY PREDICTED BY IDOCK:  -11.21 KCAL/MOL
REMARK 924 INTRA-LIGAND FREE ENERGY PREDICTED BY IDOCK:   -0.42 KCAL/MOL
REMARK 927      BINDING AFFINITY PREDICTED BY RF-SCORE:    0.00 PKD
ROOT
HETATM    1  O17 CAU A 500      10.010  15.702  46.519  1.00  0.00    -0.753 OA 
HETATM    2  H17 CAU A 500       9.296  15.857  47.126  1.00  0.00     0.000 HD 
HETATM    3  C16 CAU A 500      11.168  16.061  47.136  1.00  0.00    -0.307 C  
ENDROOT
BRANCH   3   4
HETATM    4  C18 CAU A 500      11.187  15.305  48.466  1.00  0.00    -0.462 C  
BRANCH   4   5
HETATM    5  N19 CAU A 500      10.325  14.092  48.588  1.00  0.00    -0.488 NA 
HETATM    6  H19 CAU A 500      10.681  13.307  48.042  1.00  0.00     0.000 HD 
BRANCH   5   7
HETATM    7  C20 CAU A 500      10.165  13.759  49.998  1.00  0.00    -0.414 C  
HETATM    8  C21 CAU A 500      10.537  12.326  50.340  1.00  0.00    -0.690 C  
HETATM    9  C22 CAU A 500       8.855  14.206  50.583  1.00  0.00     0.205 C  
ENDBRANCH   5   7
ENDBRANCH   4   5
ENDBRANCH   3   4
BRANCH   3  10
HETATM   10  C15 CAU A 500      12.329  15.809  46.150  1.00  0.00    -0.478 C  
BRANCH  10  11
HETATM   11  O14 CAU A 500      13.544  15.444  46.714  1.00  0.00    -0.335 OA 
BRANCH  11  12
HETATM   12  C13 CAU A 500      14.724  15.633  46.032  1.00  0.00    -0.490 A  
HETATM   13  H7  CAU A 500      18.989  17.230  46.635  1.00  0.00     0.000 HD 
HETATM   14  C12 CAU A 500      14.843  15.261  44.669  1.00  0.00    -0.904 A  
HETATM   15  N7  CAU A 500      18.029  16.982  46.874  1.00  0.00    -0.713 NA 
HETATM   16  C3  CAU A 500      17.394  17.149  48.134  1.00  0.00    -0.409 A  
HETATM   17  C11 CAU A 500      16.062  15.460  43.986  1.00  0.00    -0.791 A  
HETATM   18  C10 CAU A 500      17.176  16.030  44.650  1.00  0.00    -0.510 A  
HETATM   19  C8  CAU A 500      17.054  16.398  46.008  1.00  0.00    -0.273 A  
HETATM   20  C9  CAU A 500      15.841  16.200  46.689  1.00  0.00    -0.649 A  
HETATM   21  C4  CAU A 500      16.080  16.698  48.082  1.00  0.00    -0.599 A  
HETATM   22  C5  CAU A 500      15.223  16.752  49.207  1.00  0.00    -0.623 A  
HETATM   23  C6  CAU A 500      15.752  17.277  50.370  1.00  0.00    -0.398 A  
HETATM   24  C1  CAU A 500      17.097  17.739  50.421  1.00  0.00    -0.577 A  
HETATM   25  C2  CAU A 500      17.936  17.676  49.287  1.00  0.00    -0.555 A  
ENDBRANCH  11  12
ENDBRANCH  10  11
ENDBRANCH   3  10
TORSDOF 6
ENDMDL
