REMARK  4 active torsions:
REMARK  status: ('A' for Active; 'I' for Inactive)
REMARK    1  A    between atoms: C6_16  and  C16_19
REMARK    2  A    between atoms: N3_21  and  C17_23
REMARK    3  A    between atoms: C19_28  and  C27_40
REMARK    4  A    between atoms: C27_40  and  C28_41
ROOT
HETATM    1  C1  ERM A2001      15.654 -25.152  80.315  1.00  0.00     0.061 A
HETATM    2  N1  ERM A2001      14.370 -25.205  80.796  1.00  0.00    -0.264 NA
HETATM    3  H1  ERM A2001      13.523 -25.226  80.228  1.00  0.00     0.133 HD
HETATM    4  C13 ERM A2001      14.413 -25.225  82.164  1.00  0.00     0.028 A
HETATM    5  C12 ERM A2001      13.432 -25.271  83.147  1.00  0.00     0.020 A
HETATM    6  C11 ERM A2001      13.835 -25.233  84.478  1.00  0.00     0.002 A
HETATM    7  C10 ERM A2001      15.185 -25.164  84.826  1.00  0.00     0.009 A
HETATM    8  C9  ERM A2001      16.187 -25.153  83.850  1.00  0.00    -0.012 A
HETATM    9  C14 ERM A2001      15.758 -25.171  82.519  1.00  0.00     0.005 A
HETATM   10  C2  ERM A2001      16.541 -25.130  81.352  1.00  0.00    -0.026 A
HETATM   11  C3  ERM A2001      18.036 -25.096  81.492  1.00  0.00     0.060 C
HETATM   12  C4  ERM A2001      18.472 -25.720  82.838  1.00  0.00     0.091 C
HETATM   13  N2  ERM A2001      19.934 -25.565  83.054  1.00  0.00    -0.297 NA
HETATM   14  C15 ERM A2001      20.708 -26.348  82.089  1.00  0.00     0.105 C
HETATM   15  C5  ERM A2001      20.360 -25.942  84.415  1.00  0.00     0.101 C
HETATM   16  C6  ERM A2001      19.743 -25.023  85.475  1.00  0.00     0.109 C
HETATM   17  C8  ERM A2001      17.672 -25.203  84.052  1.00  0.00    -0.025 C
HETATM   18  C7  ERM A2001      18.256 -24.919  85.230  1.00  0.00    -0.008 C
ENDROOT
BRANCH  16  19
HETATM   19  C16 ERM A2001      20.049 -25.537  86.896  1.00  0.00     0.211 C
HETATM   20  O1  ERM A2001      19.731 -26.669  87.241  1.00  0.00    -0.279 OA
HETATM   21  N3  ERM A2001      20.722 -24.694  87.702  1.00  0.00    -0.222 N
HETATM   22  H3  ERM A2001      20.984 -23.776  87.342  1.00  0.00     0.134 HD
BRANCH  21  23
HETATM   23  C17 ERM A2001      21.087 -25.039  89.057  1.00  0.00     0.202 C
HETATM   24  C26 ERM A2001      21.597 -23.868  89.872  1.00  0.00     0.070 C
HETATM   25  C18 ERM A2001      19.917 -25.578  89.840  1.00  0.00     0.255 C
HETATM   26  O3  ERM A2001      18.887 -24.984  90.098  1.00  0.00    -0.274 OA
HETATM   27  N4  ERM A2001      20.230 -26.829  90.147  1.00  0.00    -0.175 N
HETATM   28  C19 ERM A2001      19.329 -27.617  90.970  1.00  0.00     0.156 C
HETATM   29  C20 ERM A2001      20.049 -28.715  91.720  1.00  0.00     0.222 C
HETATM   30  C24 ERM A2001      22.274 -27.885  90.835  1.00  0.00     0.141 C
HETATM   31  H5  ERM A2001      22.200 -28.646  88.364  1.00  0.00     0.214 HD
HETATM   32  O4  ERM A2001      19.411 -29.396  92.502  1.00  0.00    -0.278 OA
HETATM   33  N5  ERM A2001      21.394 -28.768  91.614  1.00  0.00    -0.233 N
HETATM   34  C21 ERM A2001      22.199 -29.803  92.258  1.00  0.00     0.093 C
HETATM   35  O5  ERM A2001      21.370 -28.316  88.686  1.00  0.00    -0.351 OA
HETATM   36  O2  ERM A2001      22.032 -26.126  89.077  1.00  0.00    -0.305 OA
HETATM   37  C22 ERM A2001      23.229 -30.104  91.211  1.00  0.00     0.018 C
HETATM   38  C25 ERM A2001      21.504 -27.336  89.652  1.00  0.00     0.255 C
HETATM   39  C23 ERM A2001      23.502 -28.776  90.558  1.00  0.00     0.027 C
BRANCH  28  40
HETATM   40  C27 ERM A2001      18.102 -28.084  90.166  1.00  0.00     0.063 C
BRANCH  40  41
HETATM   41  C28 ERM A2001      16.939 -28.407  91.062  1.00  0.00    -0.045 A
HETATM   42  C31 ERM A2001      14.875 -29.060  92.814  1.00  0.00     0.000 A
HETATM   43  C33 ERM A2001      16.462 -29.706  91.142  1.00  0.00     0.004 A
HETATM   44  C30 ERM A2001      15.337 -27.757  92.741  1.00  0.00     0.000 A
HETATM   45  C29 ERM A2001      16.358 -27.432  91.864  1.00  0.00     0.004 A
HETATM   46  C32 ERM A2001      15.434 -30.031  92.009  1.00  0.00     0.000 A
ENDBRANCH  40  41
ENDBRANCH  28  40
ENDBRANCH  21  23
ENDBRANCH  16  19
TORSDOF 4
