MODEL        1
REMARK THIS MODEL IS IDENTICAL TO THE INPUT LIGAND AND NOT FROM DOCKING
REMARK 921   NORMALIZED FREE ENERGY PREDICTED BY IDOCK:  -10.60 KCAL/MOL
REMARK 922        TOTAL FREE ENERGY PREDICTED BY IDOCK:  -20.01 KCAL/MOL
REMARK 923 INTER-LIGAND FREE ENERGY PREDICTED BY IDOCK:  -18.66 KCAL/MOL
REMARK 924 INTRA-LIGAND FREE ENERGY PREDICTED BY IDOCK:   -1.34 KCAL/MOL
REMARK 927      BINDING AFFINITY PREDICTED BY RF-SCORE:    0.00 PKD
ROOT
HETATM    1  S1  K87 A1201       4.115  47.578  -1.456  1.00  0.00    -0.268 S  
HETATM    2  O1  K87 A1201       4.059  48.263  -2.718  1.00  0.00    -0.231 OA 
HETATM    3  O2  K87 A1201       5.237  47.794  -0.585  1.00  0.00    -0.494 OA 
ENDROOT
BRANCH   1   4
HETATM    4  N1  K87 A1201       4.059  45.994  -1.827  1.00  0.00    -0.434 N  
HETATM    5  H1  K87 A1201       4.880  45.428  -1.613  1.00  0.00     0.000 HD 
BRANCH   4   6
HETATM    6  C4  K87 A1201       3.030  45.392  -2.384  1.00  0.00    -0.246 A  
HETATM    7  C10 K87 A1201       0.853  45.486  -3.101  1.00  0.00    -0.189 A  
HETATM    8  N3  K87 A1201       0.822  44.220  -3.502  1.00  0.00    -0.213 NA 
HETATM    9  C9  K87 A1201       1.940  43.517  -3.355  1.00  0.00    -0.288 A  
HETATM   10  C7  K87 A1201       3.097  44.054  -2.793  1.00  0.00    -0.325 A  
HETATM   11  N2  K87 A1201       1.902  46.094  -2.551  1.00  0.00    -0.158 NA 
BRANCH  10  12
HETATM   12  O3  K87 A1201       4.293  43.296  -2.618  1.00  0.00    -0.599 OA 
BRANCH  12  13
HETATM   13  C12 K87 A1201       5.239  43.140  -3.681  1.00  0.00    -0.390 A  
HETATM   14  C18 K87 A1201       6.231  42.164  -3.527  1.00  0.00    -0.425 A  
HETATM   15  C19 K87 A1201       5.171  43.919  -4.806  1.00  0.00    -0.506 A  
HETATM   16  C22 K87 A1201       6.107  43.743  -5.818  1.00  0.00    -0.661 A  
HETATM   17  C26 K87 A1201       7.090  42.789  -5.692  1.00  0.00    -0.665 A  
HETATM   18  C21 K87 A1201       7.152  41.999  -4.553  1.00  0.00    -0.761 A  
BRANCH  14  19
HETATM   19  O5  K87 A1201       6.190  41.410  -2.313  1.00  0.00    -0.508 OA 
HETATM   20  C27 K87 A1201       7.146  40.355  -2.164  1.00  0.00    -0.561 C  
ENDBRANCH  14  19
ENDBRANCH  12  13
ENDBRANCH  10  12
BRANCH   9  21
HETATM   21  O4  K87 A1201       1.914  42.206  -3.783  1.00  0.00    -0.385 OA 
BRANCH  21  22
HETATM   22  C17 K87 A1201       0.712  41.771  -4.450  1.00  0.00    -0.414 C  
BRANCH  22  23
HETATM   23  C20 K87 A1201       0.239  40.533  -3.738  1.00  0.00    -0.629 C  
BRANCH  23  24
HETATM   24  C25 K87 A1201      -0.504  40.829  -2.455  1.00  0.00    -0.324 C  
HETATM   25  H6  K87 A1201      -0.416  42.808  -2.886  1.00  0.00     0.000 HD 
HETATM   26  O6  K87 A1201      -0.830  39.941  -1.680  1.00  0.00    -0.585 OA 
HETATM   27  N6  K87 A1201      -0.786  42.123  -2.227  1.00  0.00    -0.266 N  
BRANCH  27  28
HETATM   28  C29 K87 A1201      -1.578  42.625  -1.113  1.00  0.00    -0.307 A  
HETATM   29  C33 K87 A1201       0.477  43.851  -0.296  1.00  0.00    -0.210 C  
HETATM   30  C32 K87 A1201      -1.728  43.902   0.901  1.00  0.00    -0.459 A  
HETATM   31  C30 K87 A1201      -0.964  43.453  -0.173  1.00  0.00    -0.403 A  
HETATM   32  C36 K87 A1201      -3.050  43.542   1.029  1.00  0.00    -0.538 A  
HETATM   33  C34 K87 A1201      -3.640  42.722   0.093  1.00  0.00    -0.464 A  
HETATM   34  C31 K87 A1201      -2.917  42.239  -0.996  1.00  0.00    -0.337 A  
HETATM   35  C35 K87 A1201      -3.584  41.354  -2.009  1.00  0.00    -0.449 C  
ENDBRANCH  27  28
ENDBRANCH  23  24
ENDBRANCH  22  23
ENDBRANCH  21  22
ENDBRANCH   9  21
BRANCH   7  36
HETATM   36  C13 K87 A1201      -0.410  46.282  -3.236  1.00  0.00    -0.124 A  
HETATM   37  C23 K87 A1201      -1.461  48.282  -3.142  1.00  0.00    -0.149 A  
HETATM   38  N4  K87 A1201      -0.320  47.592  -3.034  1.00  0.00    -0.156 NA 
HETATM   39  C24 K87 A1201      -2.645  46.320  -3.590  1.00  0.00    -0.124 A  
HETATM   40  C28 K87 A1201      -2.663  47.682  -3.420  1.00  0.00    -0.248 A  
HETATM   41  N5  K87 A1201      -1.521  45.599  -3.502  1.00  0.00    -0.073 NA 
ENDBRANCH   7  36
ENDBRANCH   4   6
ENDBRANCH   1   4
BRANCH   1  42
HETATM   42  C1  K87 A1201       2.643  47.947  -0.566  1.00  0.00    -0.253 A  
HETATM   43  C3  K87 A1201       1.941  49.103  -0.849  1.00  0.00    -0.311 A  
HETATM   44  C2  K87 A1201       2.168  47.062   0.384  1.00  0.00    -0.423 A  
HETATM   45  C5  K87 A1201       1.003  47.349   1.069  1.00  0.00    -0.459 A  
HETATM   46  C6  K87 A1201       0.768  49.379  -0.174  1.00  0.00    -0.329 A  
HETATM   47  C8  K87 A1201       0.278  48.512   0.802  1.00  0.00    -0.377 A  
BRANCH  47  48
HETATM   48  C11 K87 A1201      -1.021  48.823   1.554  1.00  0.00    -0.347 C  
HETATM   49  C15 K87 A1201      -2.203  48.098   0.897  1.00  0.00    -0.380 C  
HETATM   50  C14 K87 A1201      -1.308  50.329   1.536  1.00  0.00    -0.513 C  
HETATM   51  C16 K87 A1201      -0.924  48.363   3.014  1.00  0.00    -0.705 C  
ENDBRANCH  47  48
ENDBRANCH   1  42
TORSDOF 13
ENDMDL
