REMARK  9 active torsions:
REMARK  status: ('A' for Active; 'I' for Inactive)
REMARK    1  A    between atoms: C06_2  and  C07_4
REMARK    2  A    between atoms: C06_2  and  C08_33
REMARK    3  A    between atoms: C17_8  and  O01_10
REMARK    4  A    between atoms: O01_10  and  C21_11
REMARK    5  A    between atoms: C21_11  and  C22_12
REMARK    6  A    between atoms: C24_14  and  C26_18
REMARK    7  A    between atoms: C26_18  and  O03_19
REMARK    8  A    between atoms: O03_19  and  C29_20
REMARK    9  A    between atoms: C32_23  and  C35_26
ROOT
HETATM    1  C10 7Y9 A2001     117.021 175.089 281.698  1.00  0.00     0.021 C
HETATM    2  C06 7Y9 A2001     117.841 176.141 280.948  1.00  0.00     0.015 C
HETATM    3  C09 7Y9 A2001     117.281 176.250 279.538  1.00  0.00     0.021 C
ENDROOT
BRANCH   2   4
HETATM    4  C07 7Y9 A2001     117.632 177.468 281.669  1.00  0.00    -0.037 A
HETATM    5  C11 7Y9 A2001     118.522 178.535 281.634  1.00  0.00     0.007 A
HETATM    6  C15 7Y9 A2001     118.258 179.706 282.323  1.00  0.00     0.033 A
HETATM    7  C12 7Y9 A2001     116.467 177.582 282.378  1.00  0.00     0.007 A
HETATM    8  C17 7Y9 A2001     117.081 179.806 283.042  1.00  0.00     0.077 A
HETATM    9  C16 7Y9 A2001     116.204 178.743 283.056  1.00  0.00     0.033 A
BRANCH   8  10
HETATM   10  O01 7Y9 A2001     116.773 180.967 283.763  1.00  0.00    -0.340 OA
BRANCH  10  11
HETATM   11  C21 7Y9 A2001     115.457 181.430 283.666  1.00  0.00     0.202 C
BRANCH  11  12
HETATM   12  C22 7Y9 A2001     114.432 180.789 284.605  1.00  0.00    -0.021 A
HETATM   13  C23 7Y9 A2001     113.125 181.194 284.448  1.00  0.00     0.011 A
HETATM   14  C24 7Y9 A2001     112.123 180.678 285.243  1.00  0.00    -0.021 A
HETATM   15  C25 7Y9 A2001     114.748 179.847 285.574  1.00  0.00     0.006 A
HETATM   16  C27 7Y9 A2001     112.433 179.734 286.208  1.00  0.00     0.006 A
HETATM   17  C28 7Y9 A2001     113.745 179.317 286.368  1.00  0.00     0.001 A
BRANCH  14  18
HETATM   18  C26 7Y9 A2001     110.686 181.157 285.049  1.00  0.00     0.202 C
BRANCH  18  19
HETATM   19  O03 7Y9 A2001     109.852 180.041 285.029  1.00  0.00    -0.340 OA
BRANCH  19  20
HETATM   20  C29 7Y9 A2001     108.489 180.313 285.119  1.00  0.00     0.077 A
HETATM   21  C30 7Y9 A2001     107.597 179.288 284.846  1.00  0.00     0.033 A
HETATM   22  C33 7Y9 A2001     106.239 179.520 284.934  1.00  0.00     0.011 A
HETATM   23  C32 7Y9 A2001     105.799 180.779 285.299  1.00  0.00     0.053 A
HETATM   24  C31 7Y9 A2001     108.042 181.574 285.483  1.00  0.00     0.033 A
HETATM   25  C34 7Y9 A2001     106.684 181.804 285.578  1.00  0.00     0.011 A
BRANCH  23  26
HETATM   26  C35 7Y9 A2001     104.317 181.049 285.409  1.00  0.00     0.541 C
HETATM   27  N04 7Y9 A2001     103.811 182.349 285.022  1.00  0.00    -0.536 NA
HETATM   28  N05 7Y9 A2001     103.566 180.147 285.844  1.00  0.00    -0.536 NA
HETATM   29 1H04 7Y9 A2001     104.423 183.084 284.668  1.00  0.00     0.365 HD
HETATM   30 2H04 7Y9 A2001     103.294 182.730 285.815  1.00  0.00     0.365 HD
HETATM   31 1H05 7Y9 A2001     102.565 180.329 285.918  1.00  0.00     0.365 HD
HETATM   32 2H05 7Y9 A2001     103.949 179.243 286.120  1.00  0.00     0.365 HD
ENDBRANCH  23  26
ENDBRANCH  19  20
ENDBRANCH  18  19
ENDBRANCH  14  18
ENDBRANCH  11  12
ENDBRANCH  10  11
ENDBRANCH   8  10
ENDBRANCH   2   4
BRANCH   2  33
HETATM   33  C08 7Y9 A2001     119.312 175.700 280.928  1.00  0.00    -0.037 A
HETATM   34  C18 7Y9 A2001     120.992 174.101 281.567  1.00  0.00     0.033 A
HETATM   35  C19 7Y9 A2001     121.614 176.008 280.259  1.00  0.00     0.033 A
HETATM   36  O02 7Y9 A2001     123.293 174.404 280.907  1.00  0.00    -0.360 OA
HETATM   37  H02 7Y9 A2001     123.959 174.910 280.458  1.00  0.00     0.217 HD
HETATM   38  C13 7Y9 A2001     119.673 174.528 281.574  1.00  0.00     0.007 A
HETATM   39  C14 7Y9 A2001     120.294 176.427 280.262  1.00  0.00     0.007 A
HETATM   40  C20 7Y9 A2001     121.963 174.839 280.912  1.00  0.00     0.073 A
ENDBRANCH   2  33
TORSDOF 9
