MODEL        1
REMARK THIS MODEL IS IDENTICAL TO THE INPUT LIGAND AND NOT FROM DOCKING
REMARK 921   NORMALIZED FREE ENERGY PREDICTED BY IDOCK:   -8.56 KCAL/MOL
REMARK 922        TOTAL FREE ENERGY PREDICTED BY IDOCK:  -11.48 KCAL/MOL
REMARK 923 INTER-LIGAND FREE ENERGY PREDICTED BY IDOCK:  -12.07 KCAL/MOL
REMARK 924 INTRA-LIGAND FREE ENERGY PREDICTED BY IDOCK:    0.59 KCAL/MOL
REMARK 927      BINDING AFFINITY PREDICTED BY RF-SCORE:    0.00 PKD
ROOT
HETATM    1  C4  0NN A1501       7.964 -52.247  -4.430  1.00  0.00    -0.211 A  
HETATM    2  C3  0NN A1501       7.105 -52.254  -3.207  1.00  0.00    -0.342 A  
HETATM    3  C2  0NN A1501       7.610 -52.707  -2.006  1.00  0.00    -0.698 A  
HETATM    4  C1  0NN A1501       9.035 -53.198  -1.925  1.00  0.00    -0.460 A  
HETATM    5  C6  0NN A1501       9.816 -53.193  -3.038  1.00  0.00    -0.470 A  
HETATM    6  C7  0NN A1501      11.164 -53.734  -2.651  1.00  0.00    -0.410 C  
HETATM    7  C5  0NN A1501       9.264 -52.696  -4.356  1.00  0.00    -0.505 A  
HETATM    8  O1  0NN A1501      10.915 -54.384  -1.442  1.00  0.00    -0.330 OA 
HETATM    9  C8  0NN A1501       9.867 -53.747  -0.763  1.00  0.00    -0.306 C  
HETATM   10  C11 0NN A1501      10.228 -52.693   0.305  1.00  0.00    -0.568 C  
HETATM   11  C12 0NN A1501      11.096 -53.254   1.466  1.00  0.00    -0.460 C  
HETATM   12  N1  0NN A1501      10.495 -54.509   2.009  1.00  0.00    -0.364 NA 
HETATM   13  C10 0NN A1501      10.408 -55.508   0.933  1.00  0.00    -0.158 C  
HETATM   14  C9  0NN A1501       9.435 -55.038  -0.111  1.00  0.00    -0.179 C  
ENDROOT
BRANCH  12  15
HETATM   15  C13 0NN A1501      11.305 -54.987   3.115  1.00  0.00    -0.331 C  
BRANCH  15  16
HETATM   16  C14 0NN A1501      10.488 -55.836   4.068  1.00  0.00    -0.262 C  
BRANCH  16  17
HETATM   17  C15 0NN A1501      11.395 -56.396   5.156  1.00  0.00    -0.287 C  
BRANCH  17  18
HETATM   18  N2  0NN A1501      10.643 -57.235   6.108  1.00  0.00    -0.441 N  
HETATM   19  C16 0NN A1501      10.372 -58.642   5.775  1.00  0.00    -0.215 C  
HETATM   20  H2  0NN A1501      10.314 -56.843   6.990  1.00  0.00     0.000 HD 
HETATM   21  O2  0NN A1501      10.776 -59.097   4.724  1.00  0.00    -0.180 OA 
BRANCH  19  22
HETATM   22  C17 0NN A1501       9.589 -59.563   6.753  1.00  0.00    -0.250 C  
HETATM   23  N3  0NN A1501       8.382 -58.978   7.333  1.00  0.00    -0.292 NA 
HETATM   24  C18 0NN A1501      10.429 -59.969   7.900  1.00  0.00    -0.267 C  
HETATM   25  C20 0NN A1501       8.607 -58.666   8.748  1.00  0.00    -0.421 C  
HETATM   26  C19 0NN A1501      10.066 -59.018   8.999  1.00  0.00    -0.503 C  
BRANCH  23  27
HETATM   27  C21 0NN A1501       7.824 -57.829   6.583  1.00  0.00    -0.346 C  
BRANCH  27  28
HETATM   28  C22 0NN A1501       7.523 -58.213   5.125  1.00  0.00    -0.340 A  
HETATM   29  C23 0NN A1501       7.584 -57.254   4.146  1.00  0.00    -0.387 A  
HETATM   30  C24 0NN A1501       7.291 -57.619   2.710  1.00  0.00    -0.472 A  
HETATM   31  C25 0NN A1501       6.967 -58.905   2.389  1.00  0.00    -0.542 A  
HETATM   32  C26 0NN A1501       6.900 -59.959   3.464  1.00  0.00    -0.560 A  
HETATM   33  C27 0NN A1501       7.164 -59.630   4.770  1.00  0.00    -0.512 A  
ENDBRANCH  27  28
ENDBRANCH  23  27
ENDBRANCH  19  22
ENDBRANCH  17  18
ENDBRANCH  16  17
ENDBRANCH  15  16
ENDBRANCH  12  15
TORSDOF 7
ENDMDL
