REMARK 11 active torsions:
REMARK  status: ('A' for Active; 'I' for Inactive)
REMARK    1  A    between atoms: C2_1  and  C3_5
REMARK    2  A    between atoms: C3_5  and  C4_6
REMARK    3  A    between atoms: C4_6  and  C5_7
REMARK    4  A    between atoms: C6_8  and  C7_9
REMARK    5  A    between atoms: C7_9  and  C8_10
REMARK    6  A    between atoms: C12_11  and  C13_18
REMARK    7  A    between atoms: C14_19  and  C15_20
REMARK    8  A    between atoms: C15_20  and  C16_23
REMARK    9  A    between atoms: C16_23  and  C17_24
REMARK   10  A    between atoms: C17_24  and  C18_25
REMARK   11  A    between atoms: C18_25  and  C19_26
ROOT
HETATM    1  C2  P2E A1201      82.070  36.950 223.940  1.00  0.00     0.109 C
HETATM    2  C1  P2E A1201      80.777  37.578 224.473  1.00  0.00     0.176 C
HETATM    3  O2  P2E A1201      79.954  38.082 223.676  1.00  0.00    -0.648 OA
HETATM    4  O1  P2E A1201      80.546  37.591 225.705  1.00  0.00    -0.648 OA
ENDROOT
BRANCH   1   5
HETATM    5  C3  P2E A1201      82.867  37.925 223.030  1.00  0.00     0.015 C
BRANCH   5   6
HETATM    6  C4  P2E A1201      83.729  37.176 222.002  1.00  0.00     0.027 C
BRANCH   6   7
HETATM    7  C5  P2E A1201      83.978  38.100 220.767  1.00  0.00    -0.031 C
HETATM    8  C6  P2E A1201      83.955  37.572 219.546  1.00  0.00    -0.030 C
BRANCH   8   9
HETATM    9  C7  P2E A1201      83.695  36.085 219.394  1.00  0.00     0.038 C
BRANCH   9  10
HETATM   10  C8  P2E A1201      82.690  35.804 218.177  1.00  0.00     0.068 C
HETATM   11  C12 P2E A1201      83.010  36.677 216.964  1.00  0.00     0.051 C
HETATM   12  C11 P2E A1201      81.528  36.845 216.227  1.00  0.00     0.129 C
HETATM   13  O3  P2E A1201      80.995  36.309 219.604  1.00  0.00    -0.297 OA
HETATM   14  H4  P2E A1201      80.494  38.250 215.365  1.00  0.00     0.210 HD
HETATM   15  C10 P2E A1201      80.607  36.536 217.166  1.00  0.00     0.106 C
HETATM   16  O4  P2E A1201      81.340  38.154 215.786  1.00  0.00    -0.391 OA
HETATM   17  C9  P2E A1201      81.420  36.210 218.510  1.00  0.00     0.140 C
BRANCH  11  18
HETATM   18  C13 P2E A1201      83.944  36.028 216.062  1.00  0.00    -0.022 C
HETATM   19  C14 P2E A1201      84.809  36.788 215.303  1.00  0.00    -0.000 C
BRANCH  19  20
HETATM   20  C15 P2E A1201      85.796  36.104 214.338  1.00  0.00     0.137 C
HETATM   21  O5  P2E A1201      85.358  36.291 213.042  1.00  0.00    -0.388 OA
HETATM   22  H5  P2E A1201      85.967  35.869 212.447  1.00  0.00     0.210 HD
BRANCH  20  23
HETATM   23  C16 P2E A1201      87.218  36.714 214.473  1.00  0.00     0.035 C
BRANCH  23  24
HETATM   24  C17 P2E A1201      87.622  37.003 215.932  1.00  0.00     0.003 C
BRANCH  24  25
HETATM   25  C18 P2E A1201      89.048  37.516 216.036  1.00  0.00    -0.000 C
BRANCH  25  26
HETATM   26  C19 P2E A1201      89.155  38.777 216.966  1.00  0.00    -0.003 C
HETATM   27  C20 P2E A1201      90.363  38.735 217.833  1.00  0.00     0.004 C
ENDBRANCH  25  26
ENDBRANCH  24  25
ENDBRANCH  23  24
ENDBRANCH  20  23
ENDBRANCH  19  20
ENDBRANCH  11  18
ENDBRANCH   9  10
ENDBRANCH   8   9
ENDBRANCH   6   7
ENDBRANCH   5   6
ENDBRANCH   1   5
TORSDOF 11
