REMARK  5 active torsions:
REMARK  status: ('A' for Active; 'I' for Inactive)
REMARK    1  A    between atoms: C10_3  and  C11_4
REMARK    2  A    between atoms: C10_3  and  C9_11
REMARK    3  A    between atoms: C9_11  and  O1_12
REMARK    4  A    between atoms: C11_4  and  N2_5
REMARK    5  A    between atoms: O1_12  and  C4_13
ROOT
HETATM    1  O2  P32 A 400      10.160  22.688  25.883  1.00  0.00    -0.388 OA
HETATM    2  H2  P32 A 400       9.533  23.139  26.436  1.00  0.00     0.210 HD
HETATM    3  C10 P32 A 400       9.426  21.987  24.916  1.00  0.00     0.154 C
ENDROOT
BRANCH   3   4
HETATM    4  C11 P32 A 400       8.623  22.922  23.982  1.00  0.00     0.115 C
BRANCH   4   5
HETATM    5  N2  P32 A 400       7.885  23.900  24.778  1.00  0.00    -0.309 NA
HETATM    6  H2  P32 A 400       8.521  24.527  25.271  1.00  0.00     0.123 HD
HETATM    7  C14 P32 A 400       6.473  25.879  24.816  1.00  0.00     0.027 C
HETATM    8  C12 P32 A 400       6.907  24.660  23.974  1.00  0.00     0.011 C
HETATM    9  C13 P32 A 400       7.560  25.183  22.668  1.00  0.00     0.027 C
HETATM   10  C15 P32 A 400       5.669  23.773  23.656  1.00  0.00     0.027 C
ENDBRANCH   4   5
ENDBRANCH   3   4
BRANCH   3  11
HETATM   11  C9  P32 A 400      10.431  21.265  24.030  1.00  0.00     0.200 C
BRANCH  11  12
HETATM   12  O1  P32 A 400       9.785  20.061  23.666  1.00  0.00    -0.341 OA
BRANCH  12  13
HETATM   13  C4  P32 A 400      10.280  19.285  22.680  1.00  0.00     0.085 A
HETATM   14  C5  P32 A 400      11.634  19.006  22.628  1.00  0.00     0.033 A
HETATM   15  C6  P32 A 400      12.111  18.159  21.635  1.00  0.00     0.004 A
HETATM   16  C7  P32 A 400      11.247  17.587  20.699  1.00  0.00     0.020 A
HETATM   17  C8  P32 A 400       9.890  17.877  20.761  1.00  0.00     0.030 A
HETATM   18  N1  P32 A 400       8.842  17.501  20.036  1.00  0.00    -0.249 NA
HETATM   19  H1  P32 A 400       8.858  16.883  19.224  1.00  0.00     0.134 HD
HETATM   20  C1  P32 A 400       7.775  18.076  20.562  1.00  0.00     0.099 A
HETATM   21  C2  P32 A 400       8.100  18.848  21.606  1.00  0.00     0.043 A
HETATM   22  C16 P32 A 400       6.425  17.908  20.096  1.00  0.00     0.111 C
HETATM   23  N3  P32 A 400       5.404  17.816  19.602  1.00  0.00    -0.190 NA
HETATM   24  C3  P32 A 400       9.413  18.730  21.753  1.00  0.00     0.025 A
ENDBRANCH  12  13
ENDBRANCH  11  12
ENDBRANCH   3  11
TORSDOF 5
