REMARK  7 active torsions:
REMARK  status: ('A' for Active; 'I' for Inactive)
REMARK    1  A    between atoms: C3_11  and  N7_15
REMARK    2  A    between atoms: N7_15  and  C14_17
REMARK    3  A    between atoms: N16_20  and  C26_23
REMARK    4  A    between atoms: C31_24  and  C35_29
REMARK    5  A    between atoms: C35_29  and  C36_30
REMARK    6  A    between atoms: C29_28  and  N38_32
REMARK    7  A    between atoms: N38_32  and  C40_34
ROOT
HETATM    1  C1  73R A1201       2.612  26.418 152.427  1.00  0.00     0.076 A
HETATM    2  C8  73R A1201       1.437  26.676 151.767  1.00  0.00     0.029 A
HETATM    3  C9  73R A1201       0.200  26.476 152.385  1.00  0.00     0.014 A
HETATM    4  C12 73R A1201       0.140  26.002 153.708  1.00  0.00     0.056 A
HETATM    5  C13 73R A1201       1.316  25.729 154.406  1.00  0.00     0.025 A
HETATM    6  CAP 73R A1201      -1.227  25.788 154.361  1.00  0.00     0.417 C
HETATM    7  C2  73R A1201       2.580  25.930 153.784  1.00  0.00     0.038 A
HETATM    8  F32 73R A1201      -2.184  25.880 153.403  1.00  0.00    -0.166 F
HETATM    9  F33 73R A1201      -1.277  24.556 154.929  1.00  0.00    -0.166 F
HETATM   10  F34 73R A1201      -1.446  26.724 155.297  1.00  0.00    -0.166 F
HETATM   11  C3  73R A1201       3.864  25.693 154.379  1.00  0.00     0.122 A
HETATM   12  N4  73R A1201       4.971  25.914 153.710  1.00  0.00    -0.223 NA
HETATM   13  C5  73R A1201       4.977  26.356 152.480  1.00  0.00     0.223 A
HETATM   14  N6  73R A1201       3.841  26.613 151.823  1.00  0.00    -0.235 NA
ENDROOT
BRANCH  11  15
HETATM   15  N7  73R A1201       3.907  25.196 155.767  1.00  0.00    -0.242 NA
HETATM   16  H7  73R A1201       3.032  24.887 156.189  1.00  0.00     0.135 HD
BRANCH  15  17
HETATM   17  C14 73R A1201       5.124  25.117 156.581  1.00  0.00     0.062 C
HETATM   18  C15 73R A1201       5.961  26.310 156.584  1.00  0.00     0.245 C
HETATM   19  O24 73R A1201       5.574  27.465 156.612  1.00  0.00    -0.273 OA
HETATM   20  N16 73R A1201       7.367  25.918 156.574  1.00  0.00    -0.217 N
HETATM   21  C17 73R A1201       7.513  24.396 156.556  1.00  0.00     0.042 C
HETATM   22  C18 73R A1201       6.059  24.119 156.055  1.00  0.00     0.092 C
BRANCH  20  23
HETATM   23  C26 73R A1201       8.417  26.939 156.610  1.00  0.00     0.072 C
HETATM   24  C31 73R A1201       9.291  27.020 155.377  1.00  0.00     0.008 C
HETATM   25  C30 73R A1201      10.279  25.867 155.287  1.00  0.00     0.024 C
HETATM   26  C28 73R A1201      10.317  25.768 157.765  1.00  0.00     0.020 C
HETATM   27  C27 73R A1201       9.230  26.882 157.875  1.00  0.00     0.021 C
HETATM   28  C29 73R A1201      11.169  25.737 156.503  1.00  0.00     0.057 C
BRANCH  24  29
HETATM   29  C35 73R A1201       8.415  27.098 154.135  1.00  0.00     0.005 C
BRANCH  29  30
HETATM   30  C36 73R A1201       8.582  28.552 153.526  1.00  0.00    -0.003 C
HETATM   31  C37 73R A1201       7.281  29.002 152.872  1.00  0.00     0.004 C
ENDBRANCH  29  30
ENDBRANCH  24  29
BRANCH  28  32
HETATM   32  N38 73R A1201      11.917  24.504 156.374  1.00  0.00    -0.300 NA
HETATM   33  C39 73R A1201      11.477  23.448 157.260  1.00  0.00     0.105 C
BRANCH  32  34
HETATM   34  C40 73R A1201      13.365  24.683 156.482  1.00  0.00     0.050 C
HETATM   35  C41 73R A1201      13.755  25.213 157.809  1.00  0.00     0.024 C
HETATM   36  C42 73R A1201      13.876  25.608 155.372  1.00  0.00     0.024 C
ENDBRANCH  32  34
ENDBRANCH  28  32
ENDBRANCH  20  23
ENDBRANCH  15  17
ENDBRANCH  11  15
TORSDOF 7
